MODEL 1
REMARK VINA RESULT:   -13.106      0.000      0.000
REMARK INTER + INTRA:         -15.169
REMARK INTER:                 -15.021
REMARK INTRA:                  -0.148
REMARK UNBOUND:                -0.148
REMARK  Name = =
REMARK  3 active torsions:
REMARK  status: ('A' for Active; 'I' for Inactive)
REMARK    1  A    between atoms: C_2  and  N_17
REMARK    2  A    between atoms: C_18  and  C_20
REMARK    3  A    between atoms: C_21  and  O_26
REMARK                            x       y       z     vdW  Elec       q    Type
REMARK                         _______ _______ _______ _____ _____    ______ ____
ROOT
ATOM      1  O   UNL     1      52.460 157.142  27.660  0.00  0.00    -0.333 OA
ATOM      2  C   UNL     1      52.230 156.431  28.796  0.00  0.00    +0.196 C 
ATOM      3  C   UNL     1      51.839 155.020  28.638  0.00  0.00    +0.080 C 
ATOM      4  C   UNL     1      52.464 154.347  27.479  0.00  0.00    +0.022 C 
ATOM      5  C   UNL     1      53.082 155.090  26.589  0.00  0.00    +0.046 C 
ATOM      6  C   UNL     1      53.189 156.570  26.682  0.00  0.00    +0.173 C 
ATOM      7  C   UNL     1      53.689 154.368  25.455  0.00  0.00    +0.194 C 
ATOM      8  O   UNL     1      54.284 155.083  24.599  0.00  0.00    -0.287 OA
ATOM      9  C   UNL     1      53.616 152.924  25.313  0.00  0.00    +0.042 C 
ATOM     10  C   UNL     1      52.960 152.168  26.263  0.00  0.00    +0.042 C 
ATOM     11  C   UNL     1      52.880 150.799  26.148  0.00  0.00    +0.003 C 
ATOM     12  C   UNL     1      53.480 150.188  25.046  0.00  0.00    +0.000 C 
ATOM     13  C   UNL     1      54.131 150.955  24.105  0.00  0.00    +0.000 C 
ATOM     14  C   UNL     1      54.217 152.327  24.208  0.00  0.00    +0.003 C 
ATOM     15  C   UNL     1      52.364 152.884  27.379  0.00  0.00    +0.192 C 
ATOM     16  O   UNL     1      51.746 152.232  28.285  0.00  0.00    -0.287 OA
ENDROOT
BRANCH   2  17
ATOM     17  N   UNL     1      51.156 157.111  29.546  0.00  0.00    -0.279 N 
ATOM     18  C   UNL     1      51.315 158.464  29.935  0.00  0.00    +0.250 C 
ATOM     19  O   UNL     1      52.414 159.022  29.599  0.00  0.00    -0.270 OA
ATOM     20  H   UNL     1      50.331 156.625  29.776  0.00  0.00    +0.152 HD
BRANCH  18  21
ATOM     21  C   UNL     1      50.265 159.153  30.675  0.00  0.00    +0.087 C 
ATOM     22  C   UNL     1      50.540 160.263  31.466  0.00  0.00    +0.138 C 
ATOM     23  C   UNL     1      49.478 160.867  32.149  0.00  0.00    +0.037 C 
ATOM     24  C   UNL     1      48.202 160.390  32.052  0.00  0.00    +0.003 C 
ATOM     25  C   UNL     1      47.945 159.294  31.269  0.00  0.00    +0.000 C 
ATOM     26  C   UNL     1      48.972 158.667  30.575  0.00  0.00    +0.008 C 
BRANCH  22  27
ATOM     27  O   UNL     1      51.798 160.768  31.586  0.00  0.00    -0.505 OA
ATOM     28  H   UNL     1      52.391 160.402  32.212  0.00  0.00    +0.292 HD
ENDBRANCH  22  27
ENDBRANCH  18  21
ENDBRANCH   2  17
TORSDOF 3
ENDMDL
