REMARK  Name = =
REMARK  3 active torsions:
REMARK  status: ('A' for Active; 'I' for Inactive)
REMARK    1  A    between atoms: C_2  and  N_17
REMARK    2  A    between atoms: C_18  and  C_20
REMARK    3  A    between atoms: C_21  and  O_26
REMARK                            x       y       z     vdW  Elec       q    Type
REMARK                         _______ _______ _______ _____ _____    ______ ____
ROOT
ATOM      1  O   UNL     1      52.850 157.068  28.121  0.00  0.00    -0.333 OA
ATOM      2  C   UNL     1      51.656 156.766  27.546  0.00  0.00    +0.196 C 
ATOM      3  C   UNL     1      50.459 156.844  28.401  0.00  0.00    +0.080 C 
ATOM      4  C   UNL     1      50.518 157.909  29.425  0.00  0.00    +0.022 C 
ATOM      5  C   UNL     1      51.672 158.498  29.642  0.00  0.00    +0.046 C 
ATOM      6  C   UNL     1      52.923 158.154  28.915  0.00  0.00    +0.173 C 
ATOM      7  C   UNL     1      51.675 159.553  30.673  0.00  0.00    +0.194 C 
ATOM      8  O   UNL     1      52.785 160.120  30.881  0.00  0.00    -0.287 OA
ATOM      9  C   UNL     1      50.484 159.931  31.414  0.00  0.00    +0.042 C 
ATOM     10  C   UNL     1      49.284 159.295  31.166  0.00  0.00    +0.042 C 
ATOM     11  C   UNL     1      48.144 159.638  31.856  0.00  0.00    +0.003 C 
ATOM     12  C   UNL     1      48.226 160.647  32.816  0.00  0.00    +0.000 C 
ATOM     13  C   UNL     1      49.430 161.273  33.054  0.00  0.00    +0.000 C 
ATOM     14  C   UNL     1      50.579 160.938  32.370  0.00  0.00    +0.003 C 
ATOM     15  C   UNL     1      49.287 158.256  30.149  0.00  0.00    +0.192 C 
ATOM     16  O   UNL     1      48.204 157.637  29.881  0.00  0.00    -0.287 OA
ENDROOT
BRANCH   2  17
ATOM     17  N   UNL     1      51.741 155.388  27.022  0.00  0.00    -0.279 N 
ATOM     18  C   UNL     1      52.832 154.561  27.388  0.00  0.00    +0.250 C 
ATOM     19  O   UNL     1      53.697 155.082  28.171  0.00  0.00    -0.270 OA
ATOM     20  H   UNL     1      51.042 155.045  26.420  0.00  0.00    +0.152 HD
BRANCH  18  21
ATOM     21  C   UNL     1      52.933 153.198  26.882  0.00  0.00    +0.087 C 
ATOM     22  C   UNL     1      52.168 152.166  27.413  0.00  0.00    +0.138 C 
ATOM     23  C   UNL     1      52.324 150.883  26.876  0.00  0.00    +0.037 C 
ATOM     24  C   UNL     1      53.201 150.636  25.858  0.00  0.00    +0.003 C 
ATOM     25  C   UNL     1      53.950 151.664  25.344  0.00  0.00    +0.000 C 
ATOM     26  C   UNL     1      53.823 152.951  25.850  0.00  0.00    +0.008 C 
BRANCH  22  27
ATOM     27  O   UNL     1      51.283 152.373  28.426  0.00  0.00    -0.505 OA
ATOM     28  H   UNL     1      51.177 153.231  28.787  0.00  0.00    +0.292 HD
ENDBRANCH  22  27
ENDBRANCH  18  21
ENDBRANCH   2  17
TORSDOF 3
