REMARK  Name = =
REMARK  0 active torsions:
REMARK  status: ('A' for Active; 'I' for Inactive)
REMARK                            x       y       z     vdW  Elec       q    Type
REMARK                         _______ _______ _______ _____ _____    ______ ____
ROOT
ATOM      1  C   UNL     1      51.904 155.904  27.820  0.00  0.00    +0.099 C 
ATOM      2  C   UNL     1      52.310 154.987  26.860  0.00  0.00    +0.022 C 
ATOM      3  C   UNL     1      52.328 153.645  27.170  0.00  0.00    +0.022 C 
ATOM      4  C   UNL     1      51.941 153.192  28.438  0.00  0.00    +0.022 C 
ATOM      5  C   UNL     1      51.548 154.144  29.349  0.00  0.00    +0.099 C 
ATOM      6  N   UNL     1      51.538 155.448  29.027  0.00  0.00    -0.242 NA
ATOM      7  C   UNL     1      52.735 152.750  26.204  0.00  0.00    +0.099 C 
ATOM      8  N   UNL     1      53.105 153.181  24.992  0.00  0.00    -0.242 NA
ATOM      9  C   UNL     1      53.107 154.478  24.637  0.00  0.00    +0.099 C 
ATOM     10  C   UNL     1      52.700 155.381  25.600  0.00  0.00    +0.022 C 
ENDROOT
TORSDOF 0
