REMARK  Name = =
REMARK  0 active torsions:
REMARK  status: ('A' for Active; 'I' for Inactive)
REMARK                            x       y       z     vdW  Elec       q    Type
REMARK                         _______ _______ _______ _____ _____    ______ ____
ROOT
ATOM      1  C   UNL     1      -4.597  -3.504  31.286  0.00  0.00    +0.303 C 
ATOM      2  O   UNL     1      -3.363  -3.343  31.117  0.00  0.00    -0.265 OA
ATOM      3  N   UNL     1      -5.454  -2.405  31.428  0.00  0.00    -0.267 N 
ATOM      4  C   UNL     1      -6.861  -2.577  31.621  0.00  0.00    +0.126 C 
ATOM      5  C   UNL     1      -7.462  -1.622  32.597  0.00  0.00    +0.164 C 
ATOM      6  O   UNL     1      -6.814  -0.471  32.823  0.00  0.00    -0.350 OA
ATOM      7  C   UNL     1      -5.831  -0.047  32.018  0.00  0.00    +0.164 C 
ATOM      8  C   UNL     1      -4.949  -1.065  31.386  0.00  0.00    +0.126 C 
ENDROOT
TORSDOF 0
