REMARK  Name = =
REMARK  2 active torsions:
REMARK  status: ('A' for Active; 'I' for Inactive)
REMARK    1  A    between atoms: C_1  and  P_9
REMARK    2  A    between atoms: P_9  and  O_11
REMARK                            x       y       z     vdW  Elec       q    Type
REMARK                         _______ _______ _______ _____ _____    ______ ____
ROOT
ATOM      1  C   UNL     1      -4.051  -3.001  31.623  0.00  0.00    +0.299 C 
ATOM      2  O   UNL     1      -2.938  -2.501  31.368  0.00  0.00    -0.265 OA
ATOM      3  N   UNL     1      -5.244  -2.265  31.522  0.00  0.00    -0.267 N 
ATOM      4  C   UNL     1      -6.543  -2.799  31.805  0.00  0.00    +0.126 C 
ATOM      5  C   UNL     1      -7.208  -1.874  32.812  0.00  0.00    +0.164 C 
ATOM      6  O   UNL     1      -7.247  -0.592  32.317  0.00  0.00    -0.350 OA
ATOM      7  C   UNL     1      -5.946  -0.093  32.183  0.00  0.00    +0.164 C 
ATOM      8  C   UNL     1      -5.183  -0.877  31.105  0.00  0.00    +0.126 C 
ENDROOT
BRANCH   1   9
ATOM      9  P   UNL     1      -4.045  -4.724  32.132  0.00  0.00    +0.273 P 
ATOM     10  O   UNL     1      -4.055  -4.738  33.653  0.00  0.00    -0.285 OA
ATOM     11  H   UNL     1      -5.148  -4.731  31.303  0.00  0.00    +0.137 HD
BRANCH   9  12
ATOM     12  O   UNL     1      -2.606  -5.459  31.631  0.00  0.00    -0.340 OA
ATOM     13  H   UNL     1      -1.936  -5.365  32.326  0.00  0.00    +0.218 HD
ENDBRANCH   9  12
ENDBRANCH   1   9
TORSDOF 2
