REMARK  Name = =
REMARK  6 active torsions:
REMARK  status: ('A' for Active; 'I' for Inactive)
REMARK    1  A    between atoms: P_1  and  C_3
REMARK    2  A    between atoms: P_1  and  O_11
REMARK    3  A    between atoms: P_1  and  S_12
REMARK    4  A    between atoms: S_12  and  P_13
REMARK    5  A    between atoms: P_13  and  O_15
REMARK    6  A    between atoms: P_13  and  O_16
REMARK                            x       y       z     vdW  Elec       q    Type
REMARK                         _______ _______ _______ _____ _____    ______ ____
ROOT
ATOM      1  P   UNL     1      -7.063  -1.621  32.106  0.00  0.00    +0.350 P 
ATOM      2  O   UNL     1      -6.135  -0.459  31.826  0.00  0.00    -0.269 OA
ENDROOT
BRANCH   1   3
ATOM      3  C   UNL     1      -6.266  -2.941  32.971  0.00  0.00    +0.313 C 
ATOM      4  O   UNL     1      -6.700  -3.295  34.084  0.00  0.00    -0.263 OA
ATOM      5  N   UNL     1      -5.151  -3.594  32.420  0.00  0.00    -0.266 N 
ATOM      6  C   UNL     1      -4.672  -3.153  31.117  0.00  0.00    +0.126 C 
ATOM      7  C   UNL     1      -3.895  -4.218  30.399  0.00  0.00    +0.164 C 
ATOM      8  O   UNL     1      -4.004  -5.470  30.976  0.00  0.00    -0.350 OA
ATOM      9  C   UNL     1      -3.536  -5.445  32.287  0.00  0.00    +0.164 C 
ATOM     10  C   UNL     1      -4.504  -4.679  33.141  0.00  0.00    +0.126 C 
ENDBRANCH   1   3
BRANCH   1  11
ATOM     11  O   UNL     1      -7.670  -2.173  30.629  0.00  0.00    -0.330 OA
ATOM     12  H   UNL     1      -6.943  -2.527  30.093  0.00  0.00    +0.219 HD
ENDBRANCH   1  11
BRANCH   1  13
ATOM     13  S   UNL     1      -8.717  -0.865  33.211  0.00  0.00    +0.059 S 
BRANCH  13  14
ATOM     14  P   UNL     1     -10.347  -2.172  32.887  0.00  0.00    +0.395 P 
ATOM     15  O   UNL     1     -10.789  -2.020  31.452  0.00  0.00    -0.246 OA
BRANCH  14  16
ATOM     16  O   UNL     1      -9.802  -3.751  33.096  0.00  0.00    -0.316 OA
ATOM     17  H   UNL     1      -9.511  -3.874  34.013  0.00  0.00    +0.221 HD
ENDBRANCH  14  16
BRANCH  14  18
ATOM     18  O   UNL     1     -11.580  -1.770  33.965  0.00  0.00    -0.316 OA
ATOM     19  H   UNL     1     -11.262  -1.879  34.875  0.00  0.00    +0.221 HD
ENDBRANCH  14  18
ENDBRANCH  13  14
ENDBRANCH   1  13
TORSDOF 6
