REMARK  Name = =
REMARK  9 active torsions:
REMARK  status: ('A' for Active; 'I' for Inactive)
REMARK    1  A    between atoms: P_1  and  C_3
REMARK    2  A    between atoms: P_1  and  O_11
REMARK    3  A    between atoms: P_1  and  S_12
REMARK    4  A    between atoms: S_12  and  P_13
REMARK    5  A    between atoms: P_13  and  O_15
REMARK    6  A    between atoms: P_13  and  O_16
REMARK    7  A    between atoms: O_16  and  O_17
REMARK    8  A    between atoms: O_17  and  C_18
REMARK    9  A    between atoms: C_18  and  O_20
REMARK                            x       y       z     vdW  Elec       q    Type
REMARK                         _______ _______ _______ _____ _____    ______ ____
ROOT
ATOM      1  P   UNL     1      -4.636  -3.471  31.964  0.00  0.00    +0.350 P 
ATOM      2  O   UNL     1      -4.023  -4.633  32.692  0.00  0.00    -0.269 OA
ENDROOT
BRANCH   1   3
ATOM      3  C   UNL     1      -5.747  -2.588  33.011  0.00  0.00    +0.313 C 
ATOM      4  O   UNL     1      -5.644  -2.715  34.259  0.00  0.00    -0.263 OA
ATOM      5  N   UNL     1      -6.749  -1.744  32.470  0.00  0.00    -0.266 N 
ATOM      6  C   UNL     1      -6.888  -1.583  31.041  0.00  0.00    +0.126 C 
ATOM      7  C   UNL     1      -8.278  -2.064  30.674  0.00  0.00    +0.164 C 
ATOM      8  O   UNL     1      -9.166  -2.031  31.705  0.00  0.00    -0.350 OA
ATOM      9  C   UNL     1      -9.025  -0.992  32.587  0.00  0.00    +0.164 C 
ATOM     10  C   UNL     1      -7.676  -1.005  33.296  0.00  0.00    +0.126 C 
ENDBRANCH   1   3
BRANCH   1  11
ATOM     11  O   UNL     1      -5.420  -4.098  30.594  0.00  0.00    -0.330 OA
ATOM     12  H   UNL     1      -6.152  -4.669  30.874  0.00  0.00    +0.219 HD
ENDBRANCH   1  11
BRANCH   1  13
ATOM     13  S   UNL     1      -3.044  -2.230  31.310  0.00  0.00    +0.062 S 
BRANCH  13  14
ATOM     14  P   UNL     1      -2.186  -3.049  29.565  0.00  0.00    +0.434 P 
ATOM     15  O   UNL     1      -2.323  -2.101  28.381  0.00  0.00    -0.242 OA
BRANCH  14  16
ATOM     16  O   UNL     1      -0.521  -3.228  29.853  0.00  0.00    -0.314 OA
ATOM     17  H   UNL     1      -0.138  -2.367  30.082  0.00  0.00    +0.221 HD
ENDBRANCH  14  16
BRANCH  14  18
ATOM     18  O   UNL     1      -2.890  -4.528  29.163  0.00  0.00    -0.083 OA
BRANCH  18  19
ATOM     19  O   UNL     1      -2.596  -5.449  30.091  0.00  0.00    -0.250 OA
BRANCH  19  20
ATOM     20  C   UNL     1      -1.609  -6.412  29.898  0.00  0.00    +0.540 C 
ATOM     21  O   UNL     1      -0.969  -6.360  28.813  0.00  0.00    -0.201 OA
BRANCH  20  22
ATOM     22  O   UNL     1      -1.305  -7.393  30.812  0.00  0.00    -0.448 OA
ATOM     23  H   UNL     1      -0.629  -8.014  30.625  0.00  0.00    +0.299 HD
ENDBRANCH  20  22
ENDBRANCH  19  20
ENDBRANCH  18  19
ENDBRANCH  14  18
ENDBRANCH  13  14
ENDBRANCH   1  13
TORSDOF 9
