REMARK  Name = =
REMARK  8 active torsions:
REMARK  status: ('A' for Active; 'I' for Inactive)
REMARK    1  A    between atoms: O_2  and  S_21
REMARK    2  A    between atoms: C_12  and  N_14
REMARK    3  A    between atoms: S_21  and  P_22
REMARK    4  A    between atoms: P_22  and  O_24
REMARK    5  A    between atoms: P_22  and  O_25
REMARK    6  A    between atoms: O_25  and  O_26
REMARK    7  A    between atoms: O_26  and  C_27
REMARK    8  A    between atoms: C_27  and  O_29
REMARK                            x       y       z     vdW  Elec       q    Type
REMARK                         _______ _______ _______ _____ _____    ______ ____
ROOT
ATOM      1  P   UNL     1      -1.156  -5.475  31.071  0.00  0.00    +0.000 P 
ENDROOT
TORSDOF 0
REMARK  Name = =
REMARK  8 active torsions:
REMARK  status: ('A' for Active; 'I' for Inactive)
REMARK    1  A    between atoms: O_2  and  S_21
REMARK    2  A    between atoms: C_12  and  N_14
REMARK    3  A    between atoms: S_21  and  P_22
REMARK    4  A    between atoms: P_22  and  O_24
REMARK    5  A    between atoms: P_22  and  O_25
REMARK    6  A    between atoms: O_25  and  O_26
REMARK    7  A    between atoms: O_26  and  C_27
REMARK    8  A    between atoms: C_27  and  O_29
REMARK                            x       y       z     vdW  Elec       q    Type
REMARK                         _______ _______ _______ _____ _____    ______ ____
ROOT
ATOM      1  P   UNL     1       2.020  -5.626  32.553  0.00  0.00    +0.450 P 
ATOM      2  O   UNL     1       1.418  -5.538  33.914  0.00  0.00    -0.241 OA
ENDROOT
BRANCH   1   3
ATOM      3  O   UNL     1       3.538  -4.852  32.525  0.00  0.00    -0.313 OA
ATOM      4  H   UNL     1       3.426  -3.912  32.736  0.00  0.00    +0.221 HD
ENDBRANCH   1   3
BRANCH   1   5
ATOM      5  S   UNL     1       0.843  -4.792  31.046  0.00  0.00    +0.115 S 
BRANCH   5   6
ATOM      6  O   UNL     1      -0.300  -4.873  29.986  0.00  0.00    -0.320 OA
ATOM      7  H   UNL     1      -0.376  -4.022  29.527  0.00  0.00    +0.228 HD
ENDBRANCH   5   6
ENDBRANCH   1   5
BRANCH   1   8
ATOM      8  O   UNL     1       2.316  -7.261  32.174  0.00  0.00    -0.081 OA
BRANCH   8   9
ATOM      9  O   UNL     1       1.181  -7.857  31.804  0.00  0.00    -0.250 OA
BRANCH   9  10
ATOM     10  C   UNL     1       0.388  -8.488  32.740  0.00  0.00    +0.540 C 
ATOM     11  O   UNL     1       0.751  -8.554  33.958  0.00  0.00    -0.201 OA
BRANCH  10  12
ATOM     12  O   UNL     1      -0.810  -9.040  32.293  0.00  0.00    -0.448 OA
ATOM     13  H   UNL     1      -1.378  -9.478  32.896  0.00  0.00    +0.299 HD
ENDBRANCH  10  12
ENDBRANCH   9  10
ENDBRANCH   8   9
ENDBRANCH   1   8
TORSDOF 7
REMARK  Name = =
REMARK  8 active torsions:
REMARK  status: ('A' for Active; 'I' for Inactive)
REMARK    1  A    between atoms: O_2  and  S_21
REMARK    2  A    between atoms: C_12  and  N_14
REMARK    3  A    between atoms: S_21  and  P_22
REMARK    4  A    between atoms: P_22  and  O_24
REMARK    5  A    between atoms: P_22  and  O_25
REMARK    6  A    between atoms: O_25  and  O_26
REMARK    7  A    between atoms: O_26  and  C_27
REMARK    8  A    between atoms: C_27  and  O_29
REMARK                            x       y       z     vdW  Elec       q    Type
REMARK                         _______ _______ _______ _____ _____    ______ ____
ROOT
ATOM      1  C   UNL     1      -2.545  -4.421  31.293  0.00  0.00    -0.000 C 
ATOM      2  C   UNL     1      -2.629  -3.167  30.713  0.00  0.00    -0.003 C 
ATOM      3  C   UNL     1      -3.703  -2.324  30.840  0.00  0.00    -0.009 C 
ATOM      4  C   UNL     1      -4.792  -2.715  31.584  0.00  0.00    -0.009 C 
ATOM      5  C   UNL     1      -4.771  -3.946  32.185  0.00  0.00    -0.003 C 
ATOM      6  C   UNL     1      -3.685  -4.756  32.036  0.00  0.00    -0.000 C 
ATOM      7  C   UNL     1      -5.774  -1.597  31.522  0.00  0.00    +0.096 C 
ATOM      8  N   UNL     1      -4.924  -0.445  31.312  0.00  0.00    -0.290 NA
ATOM      9  C   UNL     1      -3.978  -0.936  30.296  0.00  0.00    +0.096 C 
ATOM     10  H   UNL     1      -4.440  -0.181  32.170  0.00  0.00    +0.124 HD
ENDROOT
TORSDOF 0
REMARK  Name = =
REMARK  8 active torsions:
REMARK  status: ('A' for Active; 'I' for Inactive)
REMARK    1  A    between atoms: O_2  and  S_21
REMARK    2  A    between atoms: C_12  and  N_14
REMARK    3  A    between atoms: S_21  and  P_22
REMARK    4  A    between atoms: P_22  and  O_24
REMARK    5  A    between atoms: P_22  and  O_25
REMARK    6  A    between atoms: O_25  and  O_26
REMARK    7  A    between atoms: O_26  and  C_27
REMARK    8  A    between atoms: C_27  and  O_29
REMARK                            x       y       z     vdW  Elec       q    Type
REMARK                         _______ _______ _______ _____ _____    ______ ____
ROOT
ATOM      1  N   UNL     1      -0.595  -7.388  29.018  0.00  0.00    -0.240 NA
ATOM      2  C   UNL     1       0.706  -6.885  28.662  0.00  0.00    +0.107 C 
ATOM      3  C   UNL     1       1.252  -7.364  27.348  0.00  0.00    +0.160 C 
ATOM      4  O   UNL     1       0.875  -8.647  26.989  0.00  0.00    -0.351 OA
ATOM      5  C   UNL     1      -0.536  -8.617  26.892  0.00  0.00    +0.160 C 
ATOM      6  C   UNL     1      -1.062  -8.590  28.301  0.00  0.00    +0.107 C 
ENDROOT
BRANCH   1   7
ATOM      7  C   UNL     1      -1.433  -6.850  29.988  0.00  0.00    +0.259 C 
ATOM      8  O   UNL     1      -2.583  -7.409  30.151  0.00  0.00    -0.201 OA
ENDBRANCH   1   7
TORSDOF 1
REMARK  Name = =
REMARK  8 active torsions:
REMARK  status: ('A' for Active; 'I' for Inactive)
REMARK    1  A    between atoms: O_2  and  S_21
REMARK    2  A    between atoms: C_12  and  N_14
REMARK    3  A    between atoms: S_21  and  P_22
REMARK    4  A    between atoms: P_22  and  O_24
REMARK    5  A    between atoms: P_22  and  O_25
REMARK    6  A    between atoms: O_25  and  O_26
REMARK    7  A    between atoms: O_26  and  C_27
REMARK    8  A    between atoms: C_27  and  O_29
REMARK                            x       y       z     vdW  Elec       q    Type
REMARK                         _______ _______ _______ _____ _____    ______ ____
ROOT
ATOM      1  O   HOH     1      -1.093  -6.309  32.570  0.00  0.00    -0.253 OA
ATOM      2  H   HOH     0      -0.123  -6.309  32.570  0.00  0.00    +0.253 HD
ENDROOT
TORSDOF 0
