REMARK  Name = =
REMARK  8 active torsions:
REMARK  status: ('A' for Active; 'I' for Inactive)
REMARK    1  A    between atoms: C_12  and  N_14
REMARK    2  A    between atoms: S_20  and  N_21
REMARK    3  A    between atoms: S_20  and  P_27
REMARK    4  A    between atoms: P_27  and  O_29
REMARK    5  A    between atoms: P_27  and  O_30
REMARK    6  A    between atoms: O_30  and  O_31
REMARK    7  A    between atoms: O_31  and  C_32
REMARK    8  A    between atoms: C_32  and  O_34
REMARK                            x       y       z     vdW  Elec       q    Type
REMARK                         _______ _______ _______ _____ _____    ______ ____
ROOT
ATOM      1  P   UNL     1       0.625  -6.399  30.627  0.00  0.00    +0.000 P 
ENDROOT
TORSDOF 0
REMARK  Name = =
REMARK  8 active torsions:
REMARK  status: ('A' for Active; 'I' for Inactive)
REMARK    1  A    between atoms: C_12  and  N_14
REMARK    2  A    between atoms: S_20  and  N_21
REMARK    3  A    between atoms: S_20  and  P_27
REMARK    4  A    between atoms: P_27  and  O_29
REMARK    5  A    between atoms: P_27  and  O_30
REMARK    6  A    between atoms: O_30  and  O_31
REMARK    7  A    between atoms: O_31  and  C_32
REMARK    8  A    between atoms: C_32  and  O_34
REMARK                            x       y       z     vdW  Elec       q    Type
REMARK                         _______ _______ _______ _____ _____    ______ ____
ROOT
ATOM      1  O   HOH     1      -0.407  -5.420  30.859  0.00  0.00    -0.253 OA
ATOM      2  H   HOH     0       0.563  -5.420  30.859  0.00  0.00    +0.253 HD
ENDROOT
TORSDOF 0
REMARK  Name = =
REMARK  8 active torsions:
REMARK  status: ('A' for Active; 'I' for Inactive)
REMARK    1  A    between atoms: C_12  and  N_14
REMARK    2  A    between atoms: S_20  and  N_21
REMARK    3  A    between atoms: S_20  and  P_27
REMARK    4  A    between atoms: P_27  and  O_29
REMARK    5  A    between atoms: P_27  and  O_30
REMARK    6  A    between atoms: O_30  and  O_31
REMARK    7  A    between atoms: O_31  and  C_32
REMARK    8  A    between atoms: C_32  and  O_34
REMARK                            x       y       z     vdW  Elec       q    Type
REMARK                         _______ _______ _______ _____ _____    ______ ____
ROOT
ATOM      1  C   UNL     1       1.438  -5.792  32.093  0.00  0.00    -0.000 C 
ATOM      2  C   UNL     1       1.071  -6.111  33.394  0.00  0.00    -0.003 C 
ATOM      3  C   UNL     1       1.740  -5.631  34.495  0.00  0.00    -0.009 C 
ATOM      4  C   UNL     1       2.810  -4.807  34.347  0.00  0.00    -0.009 C 
ATOM      5  C   UNL     1       3.186  -4.479  33.068  0.00  0.00    -0.003 C 
ATOM      6  C   UNL     1       2.521  -4.957  31.960  0.00  0.00    -0.000 C 
ATOM      7  C   UNL     1       3.334  -4.443  35.682  0.00  0.00    +0.096 C 
ATOM      8  N   UNL     1       2.548  -5.157  36.639  0.00  0.00    -0.290 NA
ATOM      9  C   UNL     1       1.495  -5.864  35.936  0.00  0.00    +0.096 C 
ATOM     10  H   UNL     1       2.137  -4.502  37.304  0.00  0.00    +0.124 HD
ENDROOT
TORSDOF 0
REMARK  Name = =
REMARK  8 active torsions:
REMARK  status: ('A' for Active; 'I' for Inactive)
REMARK    1  A    between atoms: C_12  and  N_14
REMARK    2  A    between atoms: S_20  and  N_21
REMARK    3  A    between atoms: S_20  and  P_27
REMARK    4  A    between atoms: P_27  and  O_29
REMARK    5  A    between atoms: P_27  and  O_30
REMARK    6  A    between atoms: O_30  and  O_31
REMARK    7  A    between atoms: O_31  and  C_32
REMARK    8  A    between atoms: C_32  and  O_34
REMARK                            x       y       z     vdW  Elec       q    Type
REMARK                         _______ _______ _______ _____ _____    ______ ____
ROOT
ATOM      1  N   UNL     1      -1.919  -7.070  31.795  0.00  0.00    -0.240 NA
ATOM      2  C   UNL     1      -2.901  -8.042  32.226  0.00  0.00    +0.107 C 
ATOM      3  C   UNL     1      -4.264  -7.438  31.862  0.00  0.00    +0.160 C 
ATOM      4  O   UNL     1      -4.519  -6.351  32.658  0.00  0.00    -0.351 OA
ATOM      5  C   UNL     1      -3.384  -5.689  33.048  0.00  0.00    +0.160 C 
ATOM      6  C   UNL     1      -2.283  -5.684  31.990  0.00  0.00    +0.107 C 
ENDROOT
BRANCH   1   7
ATOM      7  C   UNL     1      -0.658  -7.391  31.217  0.00  0.00    +0.259 C 
ATOM      8  O   UNL     1      -0.511  -8.678  31.150  0.00  0.00    -0.201 OA
ENDBRANCH   1   7
TORSDOF 1
REMARK  Name = =
REMARK  8 active torsions:
REMARK  status: ('A' for Active; 'I' for Inactive)
REMARK    1  A    between atoms: C_12  and  N_14
REMARK    2  A    between atoms: S_20  and  N_21
REMARK    3  A    between atoms: S_20  and  P_27
REMARK    4  A    between atoms: P_27  and  O_29
REMARK    5  A    between atoms: P_27  and  O_30
REMARK    6  A    between atoms: O_30  and  O_31
REMARK    7  A    between atoms: O_31  and  C_32
REMARK    8  A    between atoms: C_32  and  O_34
REMARK                            x       y       z     vdW  Elec       q    Type
REMARK                         _______ _______ _______ _____ _____    ______ ____
ROOT
ATOM      1  P   UNL     1       1.984  -6.954  28.036  0.00  0.00    +0.426 P 
ATOM      2  O   UNL     1       2.830  -6.217  27.017  0.00  0.00    -0.243 OA
ENDROOT
BRANCH   1   3
ATOM      3  S   UNL     1       1.367  -5.856  29.399  0.00  0.00    -0.041 S 
ATOM      4  H   UNL     1       0.243  -6.395  29.943  0.00  0.00    +0.119 HD
BRANCH   3   5
ATOM      5  N   UNL     1       1.019  -4.355  28.779  0.00  0.00    -0.226 NA
ATOM      6  C   UNL     1       0.401  -4.355  27.521  0.00  0.00    +0.115 C 
ATOM      7  C   UNL     1       1.016  -3.447  26.491  0.00  0.00    +0.160 C 
ATOM      8  O   UNL     1       1.405  -2.256  27.071  0.00  0.00    -0.351 OA
ATOM      9  C   UNL     1       2.482  -2.569  27.915  0.00  0.00    +0.160 C 
ATOM     10  C   UNL     1       1.932  -3.325  29.078  0.00  0.00    +0.115 C 
ENDBRANCH   3   5
ENDBRANCH   1   3
BRANCH   1  11
ATOM     11  O   UNL     1       2.851  -8.274  28.631  0.00  0.00    -0.314 OA
ATOM     12  H   UNL     1       3.634  -7.958  29.109  0.00  0.00    +0.221 HD
ENDBRANCH   1  11
BRANCH   1  13
ATOM     13  O   UNL     1       0.637  -7.546  27.215  0.00  0.00    -0.083 OA
BRANCH  13  14
ATOM     14  O   UNL     1       1.057  -7.982  26.019  0.00  0.00    -0.250 OA
BRANCH  14  15
ATOM     15  C   UNL     1       1.387  -9.333  25.844  0.00  0.00    +0.540 C 
ATOM     16  O   UNL     1       1.147 -10.176  26.738  0.00  0.00    -0.201 OA
BRANCH  15  17
ATOM     17  O   UNL     1       1.995  -9.774  24.666  0.00  0.00    -0.448 OA
ATOM     18  H   UNL     1       2.211 -10.680  24.561  0.00  0.00    +0.299 HD
ENDBRANCH  15  17
ENDBRANCH  14  15
ENDBRANCH  13  14
ENDBRANCH   1  13
TORSDOF 7
REMARK  Name = =
REMARK  8 active torsions:
REMARK  status: ('A' for Active; 'I' for Inactive)
REMARK    1  A    between atoms: C_12  and  N_14
REMARK    2  A    between atoms: S_20  and  N_21
REMARK    3  A    between atoms: S_20  and  P_27
REMARK    4  A    between atoms: P_27  and  O_29
REMARK    5  A    between atoms: P_27  and  O_30
REMARK    6  A    between atoms: O_30  and  O_31
REMARK    7  A    between atoms: O_31  and  C_32
REMARK    8  A    between atoms: C_32  and  O_34
REMARK                            x       y       z     vdW  Elec       q    Type
REMARK                         _______ _______ _______ _____ _____    ______ ____
ROOT
ATOM      1  O   HOH     1       1.009  -7.967  30.021  0.00  0.00    -0.253 OA
ATOM      2  H   HOH     0       1.979  -7.967  30.021  0.00  0.00    +0.253 HD
ENDROOT
TORSDOF 0
