REMARK  Name = =
REMARK  4 active torsions:
REMARK  status: ('A' for Active; 'I' for Inactive)
REMARK    1  A    between atoms: C_7  and  C_11
REMARK    2  A    between atoms: C_11  and  C_14
REMARK    3  A    between atoms: N_12  and  N_13
REMARK    4  A    between atoms: C_14  and  C_15
REMARK                            x       y       z     vdW  Elec       q    Type
REMARK                         _______ _______ _______ _____ _____    ______ ____
ROOT
ATOM      1  C   UNL     1     -12.122 -42.584  27.661  0.00  0.00    +0.135 C 
ATOM      2  C   UNL     1     -12.817 -43.281  28.655  0.00  0.00    +0.013 C 
ATOM      3  C   UNL     1     -14.140 -43.884  28.364  0.00  0.00    +0.033 C 
ATOM      4  C   UNL     1     -14.605 -43.664  26.946  0.00  0.00    +0.052 C 
ATOM      5  C   UNL     1     -14.115 -42.396  26.333  0.00  0.00    +0.206 C 
ATOM      6  O   UNL     1     -12.681 -42.458  26.389  0.00  0.00    -0.476 OA
ATOM      7  C   UNL     1     -12.250 -43.391  29.894  0.00  0.00    +0.014 C 
ATOM      8  C   UNL     1     -10.997 -42.812  30.142  0.00  0.00    +0.001 C 
ATOM      9  C   UNL     1     -10.304 -42.124  29.174  0.00  0.00    +0.003 C 
ATOM     10  C   UNL     1     -10.884 -42.019  27.929  0.00  0.00    +0.037 C 
ENDROOT
BRANCH   7  11
ATOM     11  C   UNL     1     -12.889 -44.108  30.995  0.00  0.00    +0.083 C 
ATOM     12  N   UNL     1     -13.467 -45.245  30.786  0.00  0.00    -0.193 NA
BRANCH  12  13
ATOM     13  N   UNL     1     -14.086 -45.967  31.790  0.00  0.00    -0.282 N 
ATOM     14  H   UNL     1     -14.514 -46.829  31.584  0.00  0.00    +0.164 HD
ATOM     15  H   UNL     1     -14.099 -45.619  32.711  0.00  0.00    +0.164 HD
ENDBRANCH  12  13
BRANCH  11  16
ATOM     16  C   UNL     1     -12.922 -43.562  32.354  0.00  0.00    +0.112 C 
BRANCH  16  17
ATOM     17  C   UNL     1     -14.098 -42.679  32.617  0.00  0.00    +0.157 C 
ATOM     18  O   UNL     1     -15.177 -42.816  32.077  0.00  0.00    -0.296 OA
ATOM     19  C   UNL     1     -13.900 -41.577  33.606  0.00  0.00    +0.073 C 
ENDBRANCH  16  17
ENDBRANCH  11  16
ENDBRANCH   7  11
TORSDOF 4
