MODEL 1
REMARK VINA RESULT:    -8.084      0.000      0.000
REMARK INTER + INTRA:         -10.319
REMARK INTER:                  -9.974
REMARK INTRA:                  -0.345
REMARK UNBOUND:                -0.345
REMARK  Name = =
REMARK  6 active torsions:
REMARK  status: ('A' for Active; 'I' for Inactive)
REMARK    1  A    between atoms: C_8  and  P_21
REMARK    2  A    between atoms: P_21  and  O_22
REMARK    3  A    between atoms: P_21  and  O_23
REMARK    4  A    between atoms: P_21  and  O_24
REMARK    5  A    between atoms: P_21  and  C_25
REMARK    6  A    between atoms: C_25  and  O_27
REMARK                            x       y       z     vdW  Elec       q    Type
REMARK                         _______ _______ _______ _____ _____    ______ ____
ROOT
ATOM      1  C   UNL     1      51.323 164.120  41.355  0.00  0.00    +0.095 C 
ATOM      2  C   UNL     1      50.656 162.914  41.670  0.00  0.00    +0.001 C 
ATOM      3  C   UNL     1      51.453 161.830  41.968  0.00  0.00    -0.003 C 
ATOM      4  C   UNL     1      52.852 161.924  41.960  0.00  0.00    +0.001 C 
ATOM      5  C   UNL     1      53.431 163.136  41.644  0.00  0.00    +0.021 C 
ATOM      6  C   UNL     1      52.685 164.245  41.338  0.00  0.00    +0.099 C 
ATOM      7  N   UNL     1      53.270 165.414  41.030  0.00  0.00    -0.236 NA
ATOM      8  C   UNL     1      52.546 166.517  40.723  0.00  0.00    +0.165 C 
ATOM      9  C   UNL     1      51.173 166.390  40.739  0.00  0.00    +0.124 C 
ATOM     10  N   UNL     1      50.599 165.191  41.057  0.00  0.00    -0.241 NA
ATOM     11  C   UNL     1      50.557 160.706  42.217  0.00  0.00    -0.007 C 
ATOM     12  C   UNL     1      49.323 161.063  42.101  0.00  0.00    -0.022 C 
ATOM     13  C   UNL     1      49.284 162.538  41.785  0.00  0.00    +0.051 C 
ATOM     14  C   UNL     1      48.763 163.224  43.034  0.00  0.00    +0.009 C 
ATOM     15  C   UNL     1      47.374 163.718  42.880  0.00  0.00    +0.001 C 
ATOM     16  C   UNL     1      47.304 164.583  41.647  0.00  0.00    +0.001 C 
ATOM     17  C   UNL     1      47.570 163.774  40.444  0.00  0.00    +0.018 C 
ATOM     18  C   UNL     1      48.327 162.506  40.674  0.00  0.00    +0.080 C 
ATOM     19  C   UNL     1      47.873 160.754  42.030  0.00  0.00    +0.111 C 
ATOM     20  N   UNL     1      47.307 161.570  41.218  0.00  0.00    -0.214 NA
ENDROOT
BRANCH   8  21
ATOM     21  P   UNL     1      53.248 168.089  40.308  0.00  0.00    +0.297 P 
BRANCH  21  22
ATOM     22  O   UNL     1      54.258 168.619  41.284  0.00  0.00    -0.331 OA
ATOM     23  H   UNL     1      53.801 169.079  42.005  0.00  0.00    +0.219 HD
ENDBRANCH  21  22
BRANCH  21  24
ATOM     24  O   UNL     1      52.497 168.335  38.787  0.00  0.00    -0.331 OA
ATOM     25  H   UNL     1      51.624 168.737  38.918  0.00  0.00    +0.219 HD
ENDBRANCH  21  24
BRANCH  21  26
ATOM     26  O   UNL     1      54.860 168.319  39.940  0.00  0.00    -0.331 OA
ATOM     27  H   UNL     1      54.935 168.838  39.123  0.00  0.00    +0.219 HD
ENDBRANCH  21  26
BRANCH  21  28
ATOM     28  C   UNL     1      52.404 169.395  41.167  0.00  0.00    +0.398 C 
ATOM     29  O   UNL     1      52.466 170.557  40.667  0.00  0.00    -0.238 OA
BRANCH  28  30
ATOM     30  O   UNL     1      51.695 169.234  42.327  0.00  0.00    -0.473 OA
ATOM     31  H   UNL     1      51.444 169.982  42.831  0.00  0.00    +0.296 HD
ENDBRANCH  28  30
ENDBRANCH  21  28
ENDBRANCH   8  21
TORSDOF 6
ENDMDL
