REMARK  Name = =
REMARK  0 active torsions:
REMARK  status: ('A' for Active; 'I' for Inactive)
REMARK                            x       y       z     vdW  Elec       q    Type
REMARK                         _______ _______ _______ _____ _____    ______ ____
ROOT
ATOM      1  C   UNL     1      -5.031  -3.127  31.024  0.00  0.00    +0.057 C 
ATOM      2  C   UNL     1      -5.912  -2.155  31.700  0.00  0.00    +0.005 C 
ATOM      3  C   UNL     1      -5.446  -0.740  31.679  0.00  0.00    +0.000 C 
ATOM      4  C   UNL     1      -6.449   0.206  31.049  0.00  0.00    +0.000 C 
ATOM      5  C   UNL     1      -7.719  -0.516  30.651  0.00  0.00    +0.000 C 
ATOM      6  C   UNL     1      -8.236  -1.152  31.877  0.00  0.00    +0.000 C 
ATOM      7  C   UNL     1      -8.277  -0.491  33.004  0.00  0.00    +0.000 C 
ATOM      8  C   UNL     1      -7.471   0.729  33.292  0.00  0.00    +0.000 C 
ATOM      9  C   UNL     1      -6.857   1.294  32.022  0.00  0.00    +0.000 C 
ATOM     10  C   UNL     1      -8.776  -2.507  32.169  0.00  0.00    +0.000 C 
ATOM     11  C   UNL     1      -7.788  -3.223  33.017  0.00  0.00    +0.000 C 
ATOM     12  C   UNL     1      -6.419  -2.671  32.962  0.00  0.00    +0.000 C 
ATOM     13  C   UNL     1      -5.445  -3.267  33.901  0.00  0.00    +0.002 C 
ATOM     14  C   UNL     1      -4.620  -4.305  33.227  0.00  0.00    +0.030 C 
ATOM     15  C   UNL     1      -4.594  -4.300  31.766  0.00  0.00    +0.118 C 
ATOM     16  O   UNL     1      -3.291  -4.118  31.273  0.00  0.00    -0.356 OA
ATOM     17  C   UNL     1      -3.593  -2.804  30.846  0.00  0.00    +0.144 C 
ENDROOT
TORSDOF 0
