REMARK  Name = =
REMARK  1 active torsions:
REMARK  status: ('A' for Active; 'I' for Inactive)
REMARK    1  A    between atoms: C_7  and  S_18
REMARK                            x       y       z     vdW  Elec       q    Type
REMARK                         _______ _______ _______ _____ _____    ______ ____
ROOT
ATOM      1  C   UNL     1      -3.061  -4.252  31.568  0.00  0.00    +0.057 C 
ATOM      2  C   UNL     1      -2.017  -5.202  31.062  0.00  0.00    +0.005 C 
ATOM      3  C   UNL     1      -2.553  -6.602  30.982  0.00  0.00    +0.000 C 
ATOM      4  C   UNL     1      -1.515  -7.662  31.164  0.00  0.00    +0.004 C 
ATOM      5  C   UNL     1      -0.215  -7.347  30.476  0.00  0.00    +0.023 C 
ATOM      6  C   UNL     1       0.449  -6.305  31.307  0.00  0.00    -0.032 C 
ATOM      7  C   UNL     1       0.744  -6.687  32.550  0.00  0.00    +0.072 C 
ATOM      8  C   UNL     1       0.223  -8.055  32.927  0.00  0.00    +0.044 C 
ATOM      9  C   UNL     1      -1.254  -8.028  32.589  0.00  0.00    +0.006 C 
ATOM     10  C   UNL     1       0.914  -4.896  31.202  0.00  0.00    +0.023 C 
ATOM     11  C   UNL     1       0.099  -4.116  30.216  0.00  0.00    +0.004 C 
ATOM     12  C   UNL     1      -1.233  -4.743  29.917  0.00  0.00    +0.001 C 
ATOM     13  C   UNL     1      -1.933  -3.937  28.890  0.00  0.00    +0.003 C 
ATOM     14  C   UNL     1      -3.406  -3.860  29.123  0.00  0.00    +0.030 C 
ATOM     15  C   UNL     1      -3.597  -3.320  30.538  0.00  0.00    +0.120 C 
ATOM     16  O   UNL     1      -4.899  -3.484  31.013  0.00  0.00    -0.356 OA
ATOM     17  C   UNL     1      -4.484  -4.742  31.505  0.00  0.00    +0.142 C 
ENDROOT
BRANCH   7  18
ATOM     18  S   UNL     1       1.648  -5.686  33.626  0.00  0.00    -0.016 S 
ATOM     19  O   UNL     1       1.292  -5.886  35.070  0.00  0.00    -0.172 OA
ATOM     20  O   UNL     1       3.114  -6.088  33.499  0.00  0.00    -0.172 OA
ATOM     21  H   UNL     1       1.384  -4.395  33.289  0.00  0.00    +0.215 HD
ENDBRANCH   7  18
TORSDOF 1
