REMARK  Name = =
REMARK  3 active torsions:
REMARK  status: ('A' for Active; 'I' for Inactive)
REMARK    1  A    between atoms: C_1  and  N_19
REMARK    2  A    between atoms: N_19  and  S_20
REMARK    3  A    between atoms: S_20  and  N_23
REMARK                            x       y       z     vdW  Elec       q    Type
REMARK                         _______ _______ _______ _____ _____    ______ ____
ROOT
ATOM      1  C   UNL     1      -3.659  -5.014  31.931  0.00  0.00    +0.076 C 
ATOM      2  C   UNL     1      -3.964  -3.564  32.071  0.00  0.00    +0.016 C 
ATOM      3  C   UNL     1      -4.899  -3.420  33.216  0.00  0.00    +0.001 C 
ATOM      4  C   UNL     1      -6.086  -2.576  33.026  0.00  0.00    +0.000 C 
ATOM      5  C   UNL     1      -5.931  -1.461  32.100  0.00  0.00    +0.000 C 
ATOM      6  C   UNL     1      -7.126  -0.822  31.536  0.00  0.00    +0.001 C 
ATOM      7  C   UNL     1      -8.380  -1.583  31.545  0.00  0.00    +0.007 C 
ATOM      8  C   UNL     1      -8.573  -2.545  32.652  0.00  0.00    +0.000 C 
ATOM      9  C   UNL     1      -7.378  -3.280  33.111  0.00  0.00    +0.000 C 
ATOM     10  C   UNL     1      -9.591  -0.677  31.448  0.00  0.00    +0.064 C 
ATOM     11  C   UNL     1      -9.301   0.351  30.430  0.00  0.00    +0.151 C 
ATOM     12  O   UNL     1      -9.998   0.455  29.451  0.00  0.00    -0.296 OA
ATOM     13  C   UNL     1      -8.143   1.252  30.629  0.00  0.00    +0.065 C 
ATOM     14  C   UNL     1      -7.234   0.651  31.687  0.00  0.00    +0.008 C 
ATOM     15  C   UNL     1      -4.767  -1.458  31.182  0.00  0.00    +0.000 C 
ATOM     16  C   UNL     1      -4.426  -2.889  30.825  0.00  0.00    +0.001 C 
ATOM     17  C   UNL     1      -5.129  -4.779  33.779  0.00  0.00    +0.001 C 
ATOM     18  C   UNL     1      -4.807  -5.698  32.599  0.00  0.00    +0.017 C 
ENDROOT
BRANCH   1  19
ATOM     19  N   UNL     1      -2.435  -5.418  32.590  0.00  0.00    -0.171 NA
ATOM     20  H   UNL     1      -2.571  -5.362  33.599  0.00  0.00    +0.150 HD
BRANCH  19  21
ATOM     21  S   UNL     1      -1.978  -7.026  32.181  0.00  0.00    +0.093 S 
ATOM     22  O   UNL     1      -0.477  -7.091  32.178  0.00  0.00    -0.142 OA
ATOM     23  O   UNL     1      -2.527  -7.464  30.876  0.00  0.00    -0.142 OA
BRANCH  21  24
ATOM     24  N   UNL     1      -2.553  -8.095  33.427  0.00  0.00    -0.193 NA
ATOM     25  H   UNL     1      -2.179  -7.799  34.328  0.00  0.00    +0.145 HD
ATOM     26  H   UNL     1      -2.245  -9.047  33.227  0.00  0.00    +0.145 HD
ENDBRANCH  21  24
ENDBRANCH  19  21
ENDBRANCH   1  19
TORSDOF 3
