REMARK  Name = =
REMARK  4 active torsions:
REMARK  status: ('A' for Active; 'I' for Inactive)
REMARK    1  A    between atoms: C_1  and  S_19
REMARK    2  A    between atoms: C_1  and  N_27
REMARK    3  A    between atoms: N_27  and  S_28
REMARK    4  A    between atoms: S_28  and  N_31
REMARK                            x       y       z     vdW  Elec       q    Type
REMARK                         _______ _______ _______ _____ _____    ______ ____
ROOT
ATOM      1  C   UNL     1     -15.185   3.013  26.306  0.00  0.00    +0.086 C 
ATOM      2  C   UNL     1     -14.403   1.764  26.029  0.00  0.00    +0.023 C 
ATOM      3  C   UNL     1     -13.530   2.227  24.883  0.00  0.00    +0.002 C 
ATOM      4  C   UNL     1     -12.564   1.103  24.604  0.00  0.00    +0.000 C 
ATOM      5  C   UNL     1     -13.345   0.010  23.972  0.00  0.00    +0.000 C 
ATOM      6  C   UNL     1     -12.731  -1.311  23.909  0.00  0.00    +0.001 C 
ATOM      7  C   UNL     1     -11.531  -1.562  24.680  0.00  0.00    +0.007 C 
ATOM      8  C   UNL     1     -11.210  -0.657  25.803  0.00  0.00    +0.000 C 
ATOM      9  C   UNL     1     -11.939   0.628  25.866  0.00  0.00    +0.000 C 
ATOM     10  C   UNL     1     -11.146  -2.944  24.974  0.00  0.00    +0.064 C 
ATOM     11  C   UNL     1     -12.049  -3.996  24.516  0.00  0.00    +0.151 C 
ATOM     12  O   UNL     1     -12.106  -5.100  25.032  0.00  0.00    -0.296 OA
ATOM     13  C   UNL     1     -12.948  -3.730  23.368  0.00  0.00    +0.065 C 
ATOM     14  C   UNL     1     -13.684  -2.427  23.709  0.00  0.00    +0.008 C 
ATOM     15  C   UNL     1     -14.815   0.056  24.251  0.00  0.00    +0.000 C 
ATOM     16  C   UNL     1     -15.126   0.548  25.654  0.00  0.00    +0.002 C 
ATOM     17  C   UNL     1     -12.912   3.447  25.505  0.00  0.00    +0.002 C 
ATOM     18  C   UNL     1     -14.104   4.067  26.236  0.00  0.00    +0.025 C 
ENDROOT
BRANCH   1  19
ATOM     19  S   UNL     1     -15.844   2.952  27.987  0.00  0.00    -0.195 S 
ATOM     20  C   UNL     1     -17.539   2.533  28.067  0.00  0.00    +0.067 C 
ATOM     21  C   UNL     1     -17.638   1.064  28.117  0.00  0.00    -0.000 C 
ATOM     22  C   UNL     1     -16.843   0.291  28.822  0.00  0.00    +0.058 C 
ATOM     23  N   UNL     1     -15.818   0.836  29.595  0.00  0.00    -0.301 N 
ATOM     24  C   UNL     1     -15.085   1.998  29.116  0.00  0.00    +0.106 C 
ATOM     25  C   UNL     1     -15.048   2.437  30.569  0.00  0.00    +0.051 C 
ATOM     26  C   UNL     1     -14.945   0.916  30.777  0.00  0.00    +0.094 C 
ATOM     27  H   UNL     1     -15.598   4.246  28.327  0.00  0.00    +0.087 HD
ENDBRANCH   1  19
BRANCH   1  28
ATOM     28  N   UNL     1     -16.208   3.193  25.343  0.00  0.00    -0.164 NA
ATOM     29  H   UNL     1     -17.063   2.786  25.722  0.00  0.00    +0.151 HD
BRANCH  28  30
ATOM     30  S   UNL     1     -16.559   4.793  24.885  0.00  0.00    +0.093 S 
ATOM     31  O   UNL     1     -15.426   5.494  24.220  0.00  0.00    -0.141 OA
ATOM     32  O   UNL     1     -17.813   4.829  24.035  0.00  0.00    -0.141 OA
BRANCH  30  33
ATOM     33  N   UNL     1     -16.933   5.741  26.304  0.00  0.00    -0.193 NA
ATOM     34  H   UNL     1     -16.124   5.758  26.925  0.00  0.00    +0.145 HD
ATOM     35  H   UNL     1     -17.726   5.325  26.791  0.00  0.00    +0.145 HD
ENDBRANCH  30  33
ENDBRANCH  28  30
ENDBRANCH   1  28
TORSDOF 4
