REMARK  Name = =
REMARK  3 active torsions:
REMARK  status: ('A' for Active; 'I' for Inactive)
REMARK    1  A    between atoms: C_1  and  N_18
REMARK    2  A    between atoms: C_7  and  S_24
REMARK    3  A    between atoms: N_21  and  C_22
REMARK                            x       y       z     vdW  Elec       q    Type
REMARK                         _______ _______ _______ _____ _____    ______ ____
ROOT
ATOM      1  C   UNL     1      -2.733  -6.404  32.882  0.00  0.00    +0.110 C 
ATOM      2  C   UNL     1      -1.879  -6.688  31.668  0.00  0.00    +0.021 C 
ATOM      3  C   UNL     1      -1.347  -5.513  30.945  0.00  0.00    +0.002 C 
ATOM      4  C   UNL     1       0.111  -5.788  30.517  0.00  0.00    +0.000 C 
ATOM      5  C   UNL     1       0.422  -7.226  30.958  0.00  0.00    +0.002 C 
ATOM      6  C   UNL     1      -0.147  -8.101  29.892  0.00  0.00    +0.022 C 
ATOM      7  C   UNL     1       0.495  -8.014  28.708  0.00  0.00    +0.125 C 
ATOM      8  C   UNL     1       1.211  -6.703  28.476  0.00  0.00    +0.023 C 
ATOM      9  C   UNL     1       0.284  -5.627  29.043  0.00  0.00    +0.002 C 
ATOM     10  C   UNL     1      -1.219  -9.073  29.626  0.00  0.00    +0.002 C 
ATOM     11  C   UNL     1      -2.410  -8.899  30.576  0.00  0.00    +0.000 C 
ATOM     12  C   UNL     1      -2.709  -7.489  30.740  0.00  0.00    +0.002 C 
ATOM     13  C   UNL     1      -4.022  -6.933  30.393  0.00  0.00    +0.003 C 
ATOM     14  C   UNL     1      -4.623  -5.995  31.414  0.00  0.00    +0.031 C 
ATOM     15  C   UNL     1      -3.627  -5.280  32.205  0.00  0.00    +0.136 C 
ATOM     16  O   UNL     1      -3.894  -4.907  33.502  0.00  0.00    -0.353 OA
ATOM     17  C   UNL     1      -2.530  -5.267  33.734  0.00  0.00    +0.160 C 
ENDROOT
BRANCH   1  18
ATOM     18  N   UNL     1      -3.570  -7.457  33.184  0.00  0.00    -0.287 N 
ATOM     19  C   UNL     1      -3.199  -8.497  34.224  0.00  0.00    +0.303 C 
ATOM     20  O   UNL     1      -2.109  -8.333  34.747  0.00  0.00    -0.253 OA
ATOM     21  N   UNL     1      -4.223  -9.359  34.266  0.00  0.00    -0.261 N 
ATOM     22  H   UNL     1      -4.431  -7.536  32.713  0.00  0.00    +0.151 HD
ATOM     23  H   UNL     1      -5.070  -9.392  33.765  0.00  0.00    +0.153 HD
BRANCH  21  24
ATOM     24  C   UNL     1      -3.573 -10.396  35.488  0.00  0.00    +0.278 C 
ATOM     25  O   UNL     1      -2.529 -10.052  35.863  0.00  0.00    -0.196 OA
ENDBRANCH  21  24
ENDBRANCH   1  18
BRANCH   7  26
ATOM     26  S   UNL     1       0.476  -9.322  27.577  0.00  0.00    -0.032 S 
ATOM     27  O   UNL     1      -0.372  -9.046  26.381  0.00  0.00    -0.176 OA
ATOM     28  O   UNL     1       1.907  -9.474  27.057  0.00  0.00    -0.176 OA
ATOM     29  H   UNL     1      -0.016 -10.419  28.212  0.00  0.00    +0.210 HD
ENDBRANCH   7  26
TORSDOF 3
