REMARK  Name = =
REMARK  6 active torsions:
REMARK  status: ('A' for Active; 'I' for Inactive)
REMARK    1  A    between atoms: C_1  and  N_18
REMARK    2  A    between atoms: C_7  and  S_24
REMARK    3  A    between atoms: C_8  and  C_27
REMARK    4  A    between atoms: N_21  and  C_22
REMARK    5  A    between atoms: N_28  and  O_29
REMARK    6  A    between atoms: O_29  and  C_30
REMARK                            x       y       z     vdW  Elec       q    Type
REMARK                         _______ _______ _______ _____ _____    ______ ____
ROOT
ATOM      1  C   UNL     1      -2.049  -6.578  31.590  0.00  0.00    +0.110 C 
ATOM      2  C   UNL     1      -1.219  -6.336  30.344  0.00  0.00    +0.021 C 
ATOM      3  C   UNL     1      -1.743  -7.125  29.182  0.00  0.00    +0.002 C 
ATOM      4  C   UNL     1      -0.812  -7.202  28.006  0.00  0.00    +0.001 C 
ATOM      5  C   UNL     1      -0.503  -5.844  27.421  0.00  0.00    +0.002 C 
ATOM      6  C   UNL     1       0.603  -5.207  28.230  0.00  0.00    +0.022 C 
ATOM      7  C   UNL     1       1.712  -5.899  28.441  0.00  0.00    +0.131 C 
ATOM      8  C   UNL     1       1.677  -7.407  28.500  0.00  0.00    +0.066 C 
ATOM      9  C   UNL     1       0.388  -8.038  28.196  0.00  0.00    +0.008 C 
ATOM     10  C   UNL     1       0.765  -3.953  28.926  0.00  0.00    +0.002 C 
ATOM     11  C   UNL     1       0.190  -4.216  30.342  0.00  0.00    +0.000 C 
ATOM     12  C   UNL     1      -1.090  -4.908  30.116  0.00  0.00    +0.002 C 
ATOM     13  C   UNL     1      -2.322  -4.095  30.053  0.00  0.00    +0.003 C 
ATOM     14  C   UNL     1      -3.533  -4.738  30.648  0.00  0.00    +0.031 C 
ATOM     15  C   UNL     1      -3.263  -5.752  31.696  0.00  0.00    +0.136 C 
ATOM     16  O   UNL     1      -2.900  -5.204  32.923  0.00  0.00    -0.353 OA
ATOM     17  C   UNL     1      -1.625  -5.680  32.733  0.00  0.00    +0.160 C 
ENDROOT
BRANCH   1  18
ATOM     18  N   UNL     1      -2.168  -7.942  31.880  0.00  0.00    -0.287 N 
ATOM     19  C   UNL     1      -2.723  -8.411  33.198  0.00  0.00    +0.303 C 
ATOM     20  O   UNL     1      -3.030  -7.557  33.955  0.00  0.00    -0.253 OA
ATOM     21  N   UNL     1      -2.734  -9.791  33.188  0.00  0.00    -0.261 N 
ATOM     22  H   UNL     1      -1.884  -8.606  31.211  0.00  0.00    +0.151 HD
ATOM     23  H   UNL     1      -2.454 -10.438  32.500  0.00  0.00    +0.153 HD
BRANCH  21  24
ATOM     24  C   UNL     1      -3.401 -10.023  34.782  0.00  0.00    +0.278 C 
ATOM     25  O   UNL     1      -3.626  -9.047  35.338  0.00  0.00    -0.196 OA
ENDBRANCH  21  24
ENDBRANCH   1  18
BRANCH   7  26
ATOM     26  S   UNL     1       3.193  -5.051  28.651  0.00  0.00    -0.032 S 
ATOM     27  O   UNL     1       3.388  -4.393  29.981  0.00  0.00    -0.176 OA
ATOM     28  O   UNL     1       3.521  -4.117  27.496  0.00  0.00    -0.176 OA
ATOM     29  H   UNL     1       4.114  -6.052  28.638  0.00  0.00    +0.210 HD
ENDBRANCH   7  26
BRANCH   8  30
ATOM     30  C   UNL     1       2.687  -7.837  27.466  0.00  0.00    +0.116 C 
ATOM     31  N   UNL     1       2.331  -8.083  26.257  0.00  0.00    -0.075 NA
BRANCH  31  32
ATOM     32  O   UNL     1       3.266  -8.470  25.345  0.00  0.00    -0.299 OA
BRANCH  32  33
ATOM     33  C   UNL     1       3.625  -9.779  25.137  0.00  0.00    +0.423 C 
ATOM     34  O   UNL     1       3.017 -10.672  25.799  0.00  0.00    -0.224 OA
ATOM     35  N   UNL     1       4.656 -10.148  24.198  0.00  0.00    -0.293 N 
ATOM     36  H   UNL     1       5.127  -9.452  23.685  0.00  0.00    +0.148 HD
ATOM     37  H   UNL     1       4.889 -11.096  24.070  0.00  0.00    +0.148 HD
ENDBRANCH  32  33
ENDBRANCH  31  32
ENDBRANCH   8  30
TORSDOF 6
