REMARK  Name = =
REMARK  8 active torsions:
REMARK  status: ('A' for Active; 'I' for Inactive)
REMARK    1  A    between atoms: C_1  and  N_18
REMARK    2  A    between atoms: C_7  and  S_24
REMARK    3  A    between atoms: C_8  and  C_27
REMARK    4  A    between atoms: C_13  and  O_33
REMARK    5  A    between atoms: N_21  and  C_22
REMARK    6  A    between atoms: N_28  and  O_29
REMARK    7  A    between atoms: O_29  and  C_30
REMARK    8  A    between atoms: O_33  and  S_34
REMARK                            x       y       z     vdW  Elec       q    Type
REMARK                         _______ _______ _______ _____ _____    ______ ____
ROOT
ATOM      1  C   UNL     1       2.605  -6.759  26.287  0.00  0.00    +0.110 C 
ATOM      2  C   UNL     1       3.575  -6.587  25.177  0.00  0.00    +0.024 C 
ATOM      3  C   UNL     1       3.386  -5.305  24.469  0.00  0.00    +0.002 C 
ATOM      4  C   UNL     1       2.459  -5.405  23.245  0.00  0.00    +0.005 C 
ATOM      5  C   UNL     1       2.909  -6.588  22.393  0.00  0.00    +0.023 C 
ATOM      6  C   UNL     1       4.392  -6.426  22.315  0.00  0.00    -0.031 C 
ATOM      7  C   UNL     1       4.791  -5.331  21.678  0.00  0.00    +0.077 C 
ATOM      8  C   UNL     1       3.646  -4.454  21.210  0.00  0.00    +0.083 C 
ATOM      9  C   UNL     1       2.767  -4.142  22.409  0.00  0.00    +0.012 C 
ATOM     10  C   UNL     1       5.637  -7.070  22.753  0.00  0.00    +0.023 C 
ATOM     11  C   UNL     1       5.243  -7.976  23.931  0.00  0.00    +0.007 C 
ATOM     12  C   UNL     1       4.881  -7.143  25.169  0.00  0.00    +0.032 C 
ATOM     13  C   UNL     1       5.351  -7.934  26.338  0.00  0.00    +0.148 C 
ATOM     14  C   UNL     1       4.492  -7.780  27.582  0.00  0.00    +0.063 C 
ATOM     15  C   UNL     1       3.073  -7.890  27.225  0.00  0.00    +0.139 C 
ATOM     16  O   UNL     1       2.655  -8.774  26.269  0.00  0.00    -0.353 OA
ATOM     17  C   UNL     1       1.593  -7.829  26.034  0.00  0.00    +0.160 C 
ENDROOT
BRANCH   1  18
ATOM     18  N   UNL     1       2.351  -5.631  27.046  0.00  0.00    -0.287 N 
ATOM     19  C   UNL     1       1.042  -5.314  27.698  0.00  0.00    +0.303 C 
ATOM     20  O   UNL     1       0.192  -6.134  27.509  0.00  0.00    -0.253 OA
ATOM     21  N   UNL     1       1.181  -4.123  28.342  0.00  0.00    -0.261 N 
ATOM     22  H   UNL     1       3.087  -4.988  27.166  0.00  0.00    +0.151 HD
ATOM     23  H   UNL     1       1.978  -3.578  28.533  0.00  0.00    +0.153 HD
BRANCH  21  24
ATOM     24  C   UNL     1      -0.508  -3.870  28.721  0.00  0.00    +0.278 C 
ATOM     25  O   UNL     1      -1.204  -4.689  28.325  0.00  0.00    -0.196 OA
ENDBRANCH  21  24
ENDBRANCH   1  18
BRANCH   7  26
ATOM     26  S   UNL     1       6.438  -4.905  21.398  0.00  0.00    -0.016 S 
ATOM     27  O   UNL     1       6.710  -4.346  20.031  0.00  0.00    -0.172 OA
ATOM     28  O   UNL     1       6.821  -3.807  22.386  0.00  0.00    -0.172 OA
ATOM     29  H   UNL     1       7.150  -6.055  21.535  0.00  0.00    +0.215 HD
ENDBRANCH   7  26
BRANCH   8  30
ATOM     30  C   UNL     1       4.208  -3.184  20.700  0.00  0.00    +0.120 C 
ATOM     31  N   UNL     1       3.721  -2.429  19.808  0.00  0.00    -0.075 NA
BRANCH  31  32
ATOM     32  O   UNL     1       2.606  -2.593  19.124  0.00  0.00    -0.299 OA
BRANCH  32  33
ATOM     33  C   UNL     1       2.377  -3.137  17.917  0.00  0.00    +0.423 C 
ATOM     34  O   UNL     1       3.395  -3.566  17.267  0.00  0.00    -0.224 OA
ATOM     35  N   UNL     1       1.103  -3.269  17.323  0.00  0.00    -0.293 N 
ATOM     36  H   UNL     1       0.303  -2.949  17.798  0.00  0.00    +0.148 HD
ATOM     37  H   UNL     1       1.015  -3.681  16.433  0.00  0.00    +0.148 HD
ENDBRANCH  32  33
ENDBRANCH  31  32
ENDBRANCH   8  30
BRANCH  13  38
ATOM     38  O   UNL     1       6.657  -7.599  26.598  0.00  0.00    -0.220 OA
BRANCH  38  39
ATOM     39  S   UNL     1       7.744  -8.864  26.575  0.00  0.00    +0.142 S 
ATOM     40  O   UNL     1       7.037 -10.207  26.598  0.00  0.00    -0.041 OA
ATOM     41  O   UNL     1       8.482  -8.799  25.251  0.00  0.00    -0.041 OA
ATOM     42  F   UNL     1       8.882  -8.745  27.765  0.00  0.00    -0.056 F 
ENDBRANCH  38  39
ENDBRANCH  13  38
TORSDOF 8
