REMARK  Name = =
REMARK  0 active torsions:
REMARK  status: ('A' for Active; 'I' for Inactive)
REMARK                            x       y       z     vdW  Elec       q    Type
REMARK                         _______ _______ _______ _____ _____    ______ ____
ROOT
ATOM      1  C   UNL     1      -4.174  -3.955  30.713  0.00  0.00    +0.000 C 
ATOM      2  C   UNL     1      -3.090  -4.390  29.785  0.00  0.00    +0.000 C 
ATOM      3  C   UNL     1      -2.416  -5.587  30.346  0.00  0.00    +0.000 C 
ATOM      4  C   UNL     1      -0.944  -5.509  30.445  0.00  0.00    +0.000 C 
ATOM      5  C   UNL     1      -0.240  -4.802  29.356  0.00  0.00    +0.000 C 
ATOM      6  C   UNL     1       0.503  -5.652  28.392  0.00  0.00    +0.001 C 
ATOM      7  C   UNL     1       1.311  -6.667  29.128  0.00  0.00    +0.007 C 
ATOM      8  C   UNL     1       0.307  -7.598  29.821  0.00  0.00    +0.000 C 
ATOM      9  C   UNL     1      -0.326  -6.759  30.910  0.00  0.00    +0.000 C 
ATOM     10  C   UNL     1       2.257  -7.444  28.253  0.00  0.00    +0.064 C 
ATOM     11  C   UNL     1       3.049  -6.455  27.471  0.00  0.00    +0.151 C 
ATOM     12  O   UNL     1       4.253  -6.377  27.491  0.00  0.00    -0.296 OA
ATOM     13  C   UNL     1       2.267  -5.508  26.609  0.00  0.00    +0.065 C 
ATOM     14  C   UNL     1       1.297  -4.782  27.475  0.00  0.00    +0.008 C 
ATOM     15  C   UNL     1      -0.971  -3.668  28.763  0.00  0.00    +0.000 C 
ATOM     16  C   UNL     1      -2.170  -3.222  29.543  0.00  0.00    +0.000 C 
ATOM     17  C   UNL     1      -2.983  -5.683  31.768  0.00  0.00    +0.000 C 
ATOM     18  C   UNL     1      -4.393  -5.180  31.570  0.00  0.00    +0.000 C 
ENDROOT
TORSDOF 0
