REMARK  Name = =
REMARK  1 active torsions:
REMARK  status: ('A' for Active; 'I' for Inactive)
REMARK    1  A    between atoms: C_18  and  C_19
REMARK                            x       y       z     vdW  Elec       q    Type
REMARK                         _______ _______ _______ _____ _____    ______ ____
ROOT
ATOM      1  C   UNL     1      -3.615  -3.579  29.087  0.00  0.00    +0.006 C 
ATOM      2  C   UNL     1      -2.214  -3.191  28.780  0.00  0.00    +0.000 C 
ATOM      3  C   UNL     1      -1.410  -4.308  29.464  0.00  0.00    +0.000 C 
ATOM      4  C   UNL     1      -0.010  -3.804  29.530  0.00  0.00    +0.000 C 
ATOM      5  C   UNL     1       0.511  -3.681  28.114  0.00  0.00    +0.000 C 
ATOM      6  C   UNL     1       1.860  -3.021  28.204  0.00  0.00    +0.001 C 
ATOM      7  C   UNL     1       2.836  -3.789  29.030  0.00  0.00    +0.007 C 
ATOM      8  C   UNL     1       2.282  -4.169  30.362  0.00  0.00    +0.000 C 
ATOM      9  C   UNL     1       0.893  -4.727  30.308  0.00  0.00    +0.000 C 
ATOM     10  C   UNL     1       3.509  -4.915  28.311  0.00  0.00    +0.064 C 
ATOM     11  C   UNL     1       3.996  -4.413  27.005  0.00  0.00    +0.151 C 
ATOM     12  O   UNL     1       5.150  -4.585  26.686  0.00  0.00    -0.296 OA
ATOM     13  C   UNL     1       3.061  -3.705  26.109  0.00  0.00    +0.065 C 
ATOM     14  C   UNL     1       2.412  -2.591  26.896  0.00  0.00    +0.008 C 
ATOM     15  C   UNL     1      -0.376  -2.915  27.208  0.00  0.00    +0.000 C 
ATOM     16  C   UNL     1      -1.842  -3.260  27.336  0.00  0.00    +0.000 C 
ATOM     17  C   UNL     1      -2.099  -4.396  30.796  0.00  0.00    +0.006 C 
ATOM     18  C   UNL     1      -3.553  -4.285  30.421  0.00  0.00    +0.042 C 
ENDROOT
BRANCH  18  19
ATOM     19  C   UNL     1      -4.383  -3.659  31.446  0.00  0.00    +0.080 C 
ATOM     20  N   UNL     1      -4.666  -4.292  32.615  0.00  0.00    -0.152 NA
ATOM     21  N   UNL     1      -5.415  -3.746  33.558  0.00  0.00    -0.147 NA
ATOM     22  C   UNL     1      -5.931  -2.517  33.378  0.00  0.00    +0.122 C 
ATOM     23  C   UNL     1      -5.679  -1.812  32.196  0.00  0.00    +0.024 C 
ATOM     24  C   UNL     1      -4.895  -2.402  31.229  0.00  0.00    +0.018 C 
ENDBRANCH  18  19
TORSDOF 1
