REMARK  Name = =
REMARK  2 active torsions:
REMARK  status: ('A' for Active; 'I' for Inactive)
REMARK    1  A    between atoms: C_1  and  C_19
REMARK    2  A    between atoms: C_18  and  C_30
REMARK                            x       y       z     vdW  Elec       q    Type
REMARK                         _______ _______ _______ _____ _____    ______ ____
ROOT
ATOM      1  C   UNL     1      -2.100  -2.732  29.665  0.00  0.00    +0.020 C 
ATOM      2  C   UNL     1      -1.388  -3.053  28.372  0.00  0.00    +0.001 C 
ATOM      3  C   UNL     1       0.046  -2.806  28.876  0.00  0.00    +0.000 C 
ATOM      4  C   UNL     1       0.943  -3.199  27.780  0.00  0.00    +0.000 C 
ATOM      5  C   UNL     1       0.809  -2.230  26.666  0.00  0.00    +0.000 C 
ATOM      6  C   UNL     1       1.937  -1.285  26.481  0.00  0.00    +0.001 C 
ATOM      7  C   UNL     1       3.231  -1.655  27.046  0.00  0.00    +0.007 C 
ATOM      8  C   UNL     1       3.221  -2.429  28.304  0.00  0.00    +0.000 C 
ATOM      9  C   UNL     1       2.309  -3.620  28.133  0.00  0.00    +0.000 C 
ATOM     10  C   UNL     1       4.330  -1.954  26.102  0.00  0.00    +0.064 C 
ATOM     11  C   UNL     1       3.919  -2.197  24.712  0.00  0.00    +0.151 C 
ATOM     12  O   UNL     1       4.585  -2.958  24.026  0.00  0.00    -0.296 OA
ATOM     13  C   UNL     1       2.733  -1.557  24.114  0.00  0.00    +0.065 C 
ATOM     14  C   UNL     1       2.037  -0.696  25.122  0.00  0.00    +0.008 C 
ATOM     15  C   UNL     1      -0.463  -1.449  26.671  0.00  0.00    +0.000 C 
ATOM     16  C   UNL     1      -1.636  -2.113  27.267  0.00  0.00    +0.000 C 
ATOM     17  C   UNL     1       0.062  -3.624  30.107  0.00  0.00    +0.006 C 
ATOM     18  C   UNL     1      -1.389  -3.609  30.630  0.00  0.00    +0.043 C 
ENDROOT
BRANCH   1  19
ATOM     19  C   UNL     1      -3.550  -2.718  29.626  0.00  0.00    +0.124 C 
ATOM     20  C   UNL     1      -4.314  -3.752  30.284  0.00  0.00    +0.180 C 
ATOM     21  O   UNL     1      -4.372  -4.959  29.980  0.00  0.00    -0.291 OA
ATOM     22  C   UNL     1      -5.030  -3.146  31.395  0.00  0.00    +0.038 C 
ATOM     23  C   UNL     1      -4.864  -1.766  31.357  0.00  0.00    +0.038 C 
ATOM     24  C   UNL     1      -5.430  -0.921  32.287  0.00  0.00    +0.003 C 
ATOM     25  C   UNL     1      -6.201  -1.435  33.315  0.00  0.00    +0.000 C 
ATOM     26  C   UNL     1      -6.378  -2.790  33.372  0.00  0.00    +0.000 C 
ATOM     27  C   UNL     1      -5.812  -3.628  32.442  0.00  0.00    +0.003 C 
ATOM     28  C   UNL     1      -4.025  -1.411  30.208  0.00  0.00    +0.180 C 
ATOM     29  O   UNL     1      -3.757  -0.254  29.796  0.00  0.00    -0.291 OA
ENDBRANCH   1  19
BRANCH  18  30
ATOM     30  C   UNL     1      -1.855  -4.991  30.730  0.00  0.00    +0.080 C 
ATOM     31  N   UNL     1      -2.602  -5.367  31.781  0.00  0.00    -0.152 NA
ATOM     32  N   UNL     1      -3.052  -6.600  31.936  0.00  0.00    -0.147 NA
ATOM     33  C   UNL     1      -2.794  -7.576  31.049  0.00  0.00    +0.122 C 
ATOM     34  C   UNL     1      -2.020  -7.227  29.941  0.00  0.00    +0.024 C 
ATOM     35  C   UNL     1      -1.557  -5.940  29.789  0.00  0.00    +0.018 C 
ENDBRANCH  18  30
TORSDOF 2
