REMARK  Name = =
REMARK  4 active torsions:
REMARK  status: ('A' for Active; 'I' for Inactive)
REMARK    1  A    between atoms: C_1  and  C_19
REMARK    2  A    between atoms: C_8  and  O_36
REMARK    3  A    between atoms: C_18  and  C_30
REMARK    4  A    between atoms: O_36  and  S_37
REMARK                            x       y       z     vdW  Elec       q    Type
REMARK                         _______ _______ _______ _____ _____    ______ ____
ROOT
ATOM      1  C   UNL     1      -1.489  -3.977  30.430  0.00  0.00    +0.020 C 
ATOM      2  C   UNL     1      -1.251  -5.019  29.330  0.00  0.00    +0.001 C 
ATOM      3  C   UNL     1      -0.202  -4.432  28.466  0.00  0.00    +0.000 C 
ATOM      4  C   UNL     1       0.688  -5.360  27.769  0.00  0.00    +0.003 C 
ATOM      5  C   UNL     1       1.031  -6.627  28.461  0.00  0.00    +0.000 C 
ATOM      6  C   UNL     1       1.734  -7.541  27.519  0.00  0.00    +0.003 C 
ATOM      7  C   UNL     1       1.848  -7.038  26.129  0.00  0.00    +0.037 C 
ATOM      8  C   UNL     1       2.304  -5.630  25.991  0.00  0.00    +0.143 C 
ATOM      9  C   UNL     1       1.922  -4.761  27.190  0.00  0.00    +0.032 C 
ATOM     10  C   UNL     1       2.649  -7.946  25.270  0.00  0.00    +0.067 C 
ATOM     11  C   UNL     1       3.985  -8.220  25.826  0.00  0.00    +0.151 C 
ATOM     12  O   UNL     1       4.888  -8.539  25.073  0.00  0.00    -0.296 OA
ATOM     13  C   UNL     1       4.176  -8.093  27.292  0.00  0.00    +0.065 C 
ATOM     14  C   UNL     1       2.915  -8.233  28.068  0.00  0.00    +0.008 C 
ATOM     15  C   UNL     1      -0.146  -7.264  29.118  0.00  0.00    +0.000 C 
ATOM     16  C   UNL     1      -0.843  -6.285  30.031  0.00  0.00    +0.000 C 
ATOM     17  C   UNL     1       0.468  -3.324  29.228  0.00  0.00    +0.006 C 
ATOM     18  C   UNL     1      -0.734  -2.752  29.990  0.00  0.00    +0.043 C 
ENDROOT
BRANCH   1  19
ATOM     19  C   UNL     1      -2.941  -3.716  30.674  0.00  0.00    +0.124 C 
ATOM     20  C   UNL     1      -3.786  -4.891  30.304  0.00  0.00    +0.180 C 
ATOM     21  O   UNL     1      -4.354  -5.054  29.180  0.00  0.00    -0.291 OA
ATOM     22  C   UNL     1      -3.839  -5.801  31.440  0.00  0.00    +0.038 C 
ATOM     23  C   UNL     1      -3.457  -5.051  32.547  0.00  0.00    +0.038 C 
ATOM     24  C   UNL     1      -3.422  -5.681  33.769  0.00  0.00    +0.003 C 
ATOM     25  C   UNL     1      -3.757  -7.014  33.887  0.00  0.00    +0.000 C 
ATOM     26  C   UNL     1      -4.136  -7.760  32.792  0.00  0.00    +0.000 C 
ATOM     27  C   UNL     1      -4.178  -7.149  31.557  0.00  0.00    +0.003 C 
ATOM     28  C   UNL     1      -3.156  -3.685  32.164  0.00  0.00    +0.180 C 
ATOM     29  O   UNL     1      -3.076  -2.652  32.860  0.00  0.00    -0.291 OA
ENDBRANCH   1  19
BRANCH  18  30
ATOM     30  C   UNL     1      -1.500  -1.814  29.173  0.00  0.00    +0.080 C 
ATOM     31  N   UNL     1      -2.461  -1.050  29.723  0.00  0.00    -0.152 NA
ATOM     32  N   UNL     1      -3.190  -0.181  29.044  0.00  0.00    -0.147 NA
ATOM     33  C   UNL     1      -3.006  -0.009  27.727  0.00  0.00    +0.122 C 
ATOM     34  C   UNL     1      -2.049  -0.740  27.065  0.00  0.00    +0.024 C 
ATOM     35  C   UNL     1      -1.303  -1.645  27.816  0.00  0.00    +0.018 C 
ENDBRANCH  18  30
BRANCH   8  36
ATOM     36  O   UNL     1       3.637  -5.533  25.679  0.00  0.00    -0.247 OA
BRANCH  36  37
ATOM     37  S   UNL     1       3.962  -4.428  24.470  0.00  0.00    -0.029 S 
ATOM     38  O   UNL     1       2.719  -4.060  23.718  0.00  0.00    -0.075 OA
ATOM     39  O   UNL     1       4.883  -5.104  23.483  0.00  0.00    -0.075 OA
ATOM     40  H   UNL     1       4.498  -3.310  25.029  0.00  0.00    +0.215 HD
ENDBRANCH  36  37
ENDBRANCH   8  36
TORSDOF 4
