MODEL 1
REMARK VINA RESULT:   -10.692      0.000      0.000
REMARK INTER + INTRA:         -14.090
REMARK INTER:                 -13.193
REMARK INTRA:                  -0.897
REMARK UNBOUND:                -0.897
REMARK  Name = =
REMARK  4 active torsions:
REMARK  status: ('A' for Active; 'I' for Inactive)
REMARK    1  A    between atoms: C_1  and  C_8
REMARK    2  A    between atoms: C_1  and  C_23
REMARK    3  A    between atoms: C_23  and  C_37
REMARK    4  A    between atoms: N_39  and  N_42
REMARK                            x       y       z     vdW  Elec       q    Type
REMARK                         _______ _______ _______ _____ _____    ______ ____
ROOT
ATOM      1  C   UNL     1     -22.227 -43.319  25.175  0.00  0.00    +0.133 C 
ATOM      2  N   UNL     1     -23.389 -43.606  26.025  0.00  0.00    -0.267 N 
ATOM      3  C   UNL     1     -23.628 -44.997  25.914  0.00  0.00    +0.402 C 
ATOM      4  O   UNL     1     -24.410 -45.699  26.641  0.00  0.00    -0.226 OA
ATOM      5  O   UNL     1     -22.843 -45.485  24.849  0.00  0.00    -0.433 OA
ATOM      6  C   UNL     1     -21.671 -44.696  24.929  0.00  0.00    +0.231 C 
ATOM      7  H   UNL     1     -23.899 -42.960  26.564  0.00  0.00    +0.153 HD
ENDROOT
BRANCH   1   9
ATOM      8  O   UNL     1     -24.159 -42.860  23.767  0.00  0.00    -0.349 OA
ATOM      9  C   UNL     1     -22.782 -42.797  23.909  0.00  0.00    +0.140 C 
ATOM     10  C   UNL     1     -22.054 -43.148  22.639  0.00  0.00    +0.061 C 
ATOM     11  C   UNL     1     -22.473 -42.061  21.661  0.00  0.00    +0.021 C 
ATOM     12  C   UNL     1     -23.781 -41.856  21.612  0.00  0.00    +0.045 C 
ATOM     13  C   UNL     1     -24.622 -42.691  22.492  0.00  0.00    +0.172 C 
ATOM     14  C   UNL     1     -24.388 -40.860  20.741  0.00  0.00    +0.194 C 
ATOM     15  O   UNL     1     -25.625 -40.654  20.685  0.00  0.00    -0.287 OA
ATOM     16  C   UNL     1     -23.469 -40.080  19.905  0.00  0.00    +0.042 C 
ATOM     17  C   UNL     1     -22.107 -40.296  19.959  0.00  0.00    +0.042 C 
ATOM     18  C   UNL     1     -21.245 -39.565  19.172  0.00  0.00    +0.003 C 
ATOM     19  C   UNL     1     -21.784 -38.614  18.336  0.00  0.00    +0.000 C 
ATOM     20  C   UNL     1     -23.133 -38.366  18.252  0.00  0.00    +0.000 C 
ATOM     21  C   UNL     1     -23.978 -39.110  19.049  0.00  0.00    +0.003 C 
ATOM     22  C   UNL     1     -21.548 -41.319  20.858  0.00  0.00    +0.192 C 
ATOM     23  O   UNL     1     -20.321 -41.555  20.946  0.00  0.00    -0.287 OA
ENDBRANCH   1   9
BRANCH   1  24
ATOM     24  C   UNL     1     -21.253 -42.448  25.938  0.00  0.00    +0.096 C 
ATOM     25  C   UNL     1     -20.167 -41.978  25.038  0.00  0.00    +0.036 C 
ATOM     26  C   UNL     1     -18.784 -42.058  25.562  0.00  0.00    -0.026 C 
ATOM     27  C   UNL     1     -18.485 -42.178  26.889  0.00  0.00    -0.026 C 
ATOM     28  C   UNL     1     -17.204 -42.231  27.326  0.00  0.00    -0.005 C 
ATOM     29  C   UNL     1     -16.181 -42.162  26.397  0.00  0.00    -0.000 C 
ATOM     30  C   UNL     1     -16.425 -42.040  25.040  0.00  0.00    -0.000 C 
ATOM     31  C   UNL     1     -17.756 -41.991  24.650  0.00  0.00    -0.005 C 
ATOM     32  C   UNL     1     -15.395 -41.972  24.117  0.00  0.00    -0.000 C 
ATOM     33  C   UNL     1     -14.116 -42.028  24.603  0.00  0.00    -0.000 C 
ATOM     34  C   UNL     1     -13.831 -42.149  25.947  0.00  0.00    -0.000 C 
ATOM     35  C   UNL     1     -14.873 -42.215  26.839  0.00  0.00    -0.000 C 
ATOM     36  C   UNL     1     -19.649 -42.262  27.806  0.00  0.00    +0.027 C 
ATOM     37  C   UNL     1     -20.634 -43.212  27.096  0.00  0.00    +0.015 C 
BRANCH  24  38
ATOM     38  C   UNL     1     -22.064 -41.360  26.543  0.00  0.00    +0.252 C 
ATOM     39  O   UNL     1     -22.599 -41.635  27.682  0.00  0.00    -0.273 OA
ATOM     40  N   UNL     1     -22.305 -40.088  26.013  0.00  0.00    -0.118 N 
ATOM     41  C   UNL     1     -23.143 -39.193  26.784  0.00  0.00    +0.330 C 
ATOM     42  O   UNL     1     -23.426 -38.031  26.410  0.00  0.00    -0.263 OA
BRANCH  40  43
ATOM     43  N   UNL     1     -21.835 -39.563  24.824  0.00  0.00    -0.165 NA
ATOM     44  C   UNL     1     -22.516 -39.237  23.808  0.00  0.00    +0.141 C 
ENDBRANCH  40  43
ENDBRANCH  24  38
ENDBRANCH   1  24
TORSDOF 4
ENDMDL
