REMARK  Name = =
REMARK  3 active torsions:
REMARK  status: ('A' for Active; 'I' for Inactive)
REMARK    1  A    between atoms: C_1  and  O_8
REMARK    2  A    between atoms: C_5  and  C_10
REMARK    3  A    between atoms: C_6  and  O_9
REMARK                            x       y       z     vdW  Elec       q    Type
REMARK                         _______ _______ _______ _____ _____    ______ ____
ROOT
ATOM      1  C   UNL     1      -3.221  -4.161  30.607  0.00  0.00    +0.122 C 
ATOM      2  C   UNL     1      -2.059  -3.967  30.030  0.00  0.00    +0.075 C 
ATOM      3  C   UNL     1      -1.104  -5.045  29.851  0.00  0.00    +0.204 C 
ATOM      4  O   UNL     1      -0.006  -4.862  29.305  0.00  0.00    -0.286 OA
ATOM      5  C   UNL     1      -1.517  -6.350  30.353  0.00  0.00    +0.111 C 
ATOM      6  C   UNL     1      -2.680  -6.517  30.925  0.00  0.00    +0.125 C 
ATOM      7  C   UNL     1      -3.653  -5.461  31.117  0.00  0.00    +0.127 C 
ENDROOT
BRANCH   1   8
ATOM      8  O   UNL     1      -4.097  -3.034  30.739  0.00  0.00    -0.509 OA
ATOM      9  H   UNL     1      -4.935  -3.137  31.146  0.00  0.00    +0.292 HD
ENDBRANCH   1   8
BRANCH   6  10
ATOM     10  O   UNL     1      -3.056  -7.813  31.407  0.00  0.00    -0.509 OA
ATOM     11  H   UNL     1      -2.469  -8.537  31.312  0.00  0.00    +0.292 HD
ENDBRANCH   6  10
BRANCH   5  12
ATOM     12  C   UNL     1      -0.647  -7.520  30.235  0.00  0.00    +0.240 C 
ATOM     13  O   UNL     1       0.465  -7.417  29.672  0.00  0.00    -0.283 OA
ENDBRANCH   5  12
TORSDOF 3
