REMARK  Name = =
REMARK  4 active torsions:
REMARK  status: ('A' for Active; 'I' for Inactive)
REMARK    1  A    between atoms: C_1  and  O_15
REMARK    2  A    between atoms: O_15  and  C_16
REMARK    3  A    between atoms: C_20  and  C_24
REMARK    4  A    between atoms: C_21  and  O_23
REMARK                            x       y       z     vdW  Elec       q    Type
REMARK                         _______ _______ _______ _____ _____    ______ ____
ROOT
ATOM      1  C   UNL     1      -4.928  -2.774  30.801  0.00  0.00    +0.145 C 
ATOM      2  C   UNL     1      -5.893  -2.143  31.558  0.00  0.00    +0.035 C 
ATOM      3  C   UNL     1      -5.950  -0.771  31.698  0.00  0.00    +0.003 C 
ATOM      4  C   UNL     1      -5.014  -0.002  31.060  0.00  0.00    +0.000 C 
ATOM      5  C   UNL     1      -4.029  -0.631  30.289  0.00  0.00    +0.003 C 
ATOM      6  C   UNL     1      -3.976  -1.997  30.153  0.00  0.00    +0.035 C 
ATOM      7  C   UNL     1      -2.988  -2.566  29.382  0.00  0.00    +0.003 C 
ATOM      8  C   UNL     1      -2.072  -1.762  28.762  0.00  0.00    +0.000 C 
ATOM      9  C   UNL     1      -2.136  -0.389  28.906  0.00  0.00    +0.000 C 
ATOM     10  C   UNL     1      -3.112   0.182  29.668  0.00  0.00    +0.000 C 
ATOM     11  C   UNL     1      -6.939  -0.185  32.470  0.00  0.00    +0.000 C 
ATOM     12  C   UNL     1      -7.892  -0.930  33.123  0.00  0.00    +0.000 C 
ATOM     13  C   UNL     1      -7.849  -2.297  32.994  0.00  0.00    +0.000 C 
ATOM     14  C   UNL     1      -6.869  -2.870  32.229  0.00  0.00    +0.003 C 
ENDROOT
BRANCH   1  15
ATOM     15  O   UNL     1      -4.891  -4.131  30.677  0.00  0.00    -0.457 OA
BRANCH  15  16
ATOM     16  C   UNL     1      -4.005  -4.970  31.348  0.00  0.00    +0.134 C 
ATOM     17  C   UNL     1      -3.226  -5.788  30.660  0.00  0.00    +0.076 C 
ATOM     18  C   UNL     1      -2.264  -6.711  31.247  0.00  0.00    +0.204 C 
ATOM     19  O   UNL     1      -1.539  -7.475  30.551  0.00  0.00    -0.286 OA
ATOM     20  C   UNL     1      -2.146  -6.736  32.698  0.00  0.00    +0.111 C 
ATOM     21  C   UNL     1      -2.925  -5.918  33.369  0.00  0.00    +0.125 C 
ATOM     22  C   UNL     1      -3.901  -4.980  32.826  0.00  0.00    +0.128 C 
BRANCH  21  23
ATOM     23  O   UNL     1      -2.795  -5.960  34.762  0.00  0.00    -0.509 OA
ATOM     24  H   UNL     1      -2.181  -6.547  35.158  0.00  0.00    +0.292 HD
ENDBRANCH  21  23
BRANCH  20  25
ATOM     25  C   UNL     1      -1.213  -7.621  33.385  0.00  0.00    +0.240 C 
ATOM     26  O   UNL     1      -0.564  -8.451  32.704  0.00  0.00    -0.283 OA
ENDBRANCH  20  25
ENDBRANCH  15  16
ENDBRANCH   1  15
TORSDOF 4
