REMARK  Name = =
REMARK  1 active torsions:
REMARK  status: ('A' for Active; 'I' for Inactive)
REMARK    1  A    between atoms: C_5  and  N_6
REMARK                            x       y       z     vdW  Elec       q    Type
REMARK                         _______ _______ _______ _____ _____    ______ ____
ROOT
ATOM      1  C   UNL     1      -4.214  -3.888  30.973  0.00  0.00    +0.024 C 
ATOM      2  C   UNL     1      -3.297  -3.531  29.815  0.00  0.00    +0.002 C 
ATOM      3  C   UNL     1      -2.550  -4.818  29.526  0.00  0.00    +0.002 C 
ATOM      4  C   UNL     1      -2.325  -5.346  30.940  0.00  0.00    +0.024 C 
ATOM      5  C   UNL     1      -3.754  -5.221  31.491  0.00  0.00    +0.103 C 
ENDROOT
BRANCH   5   6
ATOM      6  N   UNL     1      -3.770  -5.336  32.899  0.00  0.00    -0.269 NA
ATOM      7  C   UNL     1      -4.075  -6.435  33.441  0.00  0.00    +0.113 C 
ENDBRANCH   5   6
TORSDOF 1
