REMARK  Name = =
REMARK  6 active torsions:
REMARK  status: ('A' for Active; 'I' for Inactive)
REMARK    1  A    between atoms: C_1  and  O_19
REMARK    2  A    between atoms: C_7  and  N_15
REMARK    3  A    between atoms: N_15  and  N_16
REMARK    4  A    between atoms: O_19  and  C_20
REMARK    5  A    between atoms: C_24  and  C_28
REMARK    6  A    between atoms: C_25  and  O_27
REMARK                            x       y       z     vdW  Elec       q    Type
REMARK                         _______ _______ _______ _____ _____    ______ ____
ROOT
ATOM      1  C   UNL     1      -3.453  -2.581  31.751  0.00  0.00    +0.146 C 
ATOM      2  C   UNL     1      -4.655  -2.016  32.159  0.00  0.00    +0.035 C 
ATOM      3  C   UNL     1      -5.187  -0.996  31.410  0.00  0.00    +0.003 C 
ATOM      4  C   UNL     1      -4.506  -0.576  30.280  0.00  0.00    +0.000 C 
ATOM      5  C   UNL     1      -3.309  -1.147  29.887  0.00  0.00    +0.004 C 
ATOM      6  C   UNL     1      -2.761  -2.180  30.644  0.00  0.00    +0.049 C 
ATOM      7  C   UNL     1      -1.573  -2.738  30.243  0.00  0.00    +0.064 C 
ATOM      8  C   UNL     1      -0.922  -2.285  29.086  0.00  0.00    +0.016 C 
ATOM      9  C   UNL     1      -1.458  -1.271  28.336  0.00  0.00    +0.001 C 
ATOM     10  C   UNL     1      -2.655  -0.713  28.753  0.00  0.00    +0.000 C 
ATOM     11  C   UNL     1      -6.394  -0.387  31.767  0.00  0.00    +0.000 C 
ATOM     12  C   UNL     1      -7.046  -0.818  32.880  0.00  0.00    +0.000 C 
ATOM     13  C   UNL     1      -6.499  -1.842  33.621  0.00  0.00    +0.000 C 
ATOM     14  C   UNL     1      -5.313  -2.464  33.298  0.00  0.00    +0.003 C 
ENDROOT
BRANCH   7  15
ATOM     15  N   UNL     1      -0.878  -3.689  30.994  0.00  0.00    -0.263 N 
ATOM     16  H   UNL     1      -1.165  -3.905  31.910  0.00  0.00    +0.170 HD
BRANCH  15  17
ATOM     17  N   UNL     1       0.232  -4.332  30.430  0.00  0.00    -0.229 N 
ATOM     18  C   UNL     1       0.022  -5.352  29.472  0.00  0.00    +0.316 C 
ATOM     19  O   UNL     1      -1.135  -5.728  29.083  0.00  0.00    -0.264 OA
ATOM     20  H   UNL     1       1.145  -4.078  30.697  0.00  0.00    +0.173 HD
ENDBRANCH  15  17
ENDBRANCH   7  15
BRANCH   1  21
ATOM     21  O   UNL     1      -3.002  -3.611  32.565  0.00  0.00    -0.457 OA
BRANCH  21  22
ATOM     22  C   UNL     1      -3.210  -4.963  32.167  0.00  0.00    +0.134 C 
ATOM     23  C   UNL     1      -3.953  -5.164  31.109  0.00  0.00    +0.076 C 
ATOM     24  C   UNL     1      -4.194  -6.526  30.662  0.00  0.00    +0.204 C 
ATOM     25  O   UNL     1      -4.912  -6.728  29.638  0.00  0.00    -0.286 OA
ATOM     26  C   UNL     1      -3.598  -7.637  31.412  0.00  0.00    +0.111 C 
ATOM     27  C   UNL     1      -2.856  -7.369  32.475  0.00  0.00    +0.125 C 
ATOM     28  C   UNL     1      -2.582  -6.019  32.963  0.00  0.00    +0.128 C 
BRANCH  27  29
ATOM     29  O   UNL     1      -2.299  -8.455  33.174  0.00  0.00    -0.509 OA
ATOM     30  H   UNL     1      -2.459  -9.331  32.883  0.00  0.00    +0.292 HD
ENDBRANCH  27  29
BRANCH  26  31
ATOM     31  C   UNL     1      -3.832  -9.005  30.985  0.00  0.00    +0.240 C 
ATOM     32  O   UNL     1      -4.550  -9.313  30.016  0.00  0.00    -0.283 OA
ENDBRANCH  26  31
ENDBRANCH  21  22
ENDBRANCH   1  21
TORSDOF 6
