REMARK  Name = =
REMARK  7 active torsions:
REMARK  status: ('A' for Active; 'I' for Inactive)
REMARK    1  A    between atoms: C_1  and  O_29
REMARK    2  A    between atoms: C_7  and  N_25
REMARK    3  A    between atoms: C_11  and  C_15
REMARK    4  A    between atoms: N_25  and  N_26
REMARK    5  A    between atoms: O_29  and  C_30
REMARK    6  A    between atoms: C_34  and  C_38
REMARK    7  A    between atoms: C_35  and  O_37
REMARK                            x       y       z     vdW  Elec       q    Type
REMARK                         _______ _______ _______ _____ _____    ______ ____
ROOT
ATOM      1  C   UNL     1      -2.760  -3.199  30.438  0.00  0.00    +0.146 C 
ATOM      2  C   UNL     1      -2.403  -4.552  30.623  0.00  0.00    +0.035 C 
ATOM      3  C   UNL     1      -1.610  -5.249  29.747  0.00  0.00    +0.003 C 
ATOM      4  C   UNL     1      -1.118  -4.637  28.618  0.00  0.00    +0.000 C 
ATOM      5  C   UNL     1      -1.456  -3.307  28.410  0.00  0.00    +0.004 C 
ATOM      6  C   UNL     1      -2.249  -2.608  29.291  0.00  0.00    +0.049 C 
ATOM      7  C   UNL     1      -2.511  -1.294  28.978  0.00  0.00    +0.064 C 
ATOM      8  C   UNL     1      -1.969  -0.753  27.799  0.00  0.00    +0.016 C 
ATOM      9  C   UNL     1      -1.184  -1.455  26.928  0.00  0.00    +0.001 C 
ATOM     10  C   UNL     1      -0.922  -2.766  27.243  0.00  0.00    +0.000 C 
ATOM     11  C   UNL     1      -1.258  -6.579  29.972  0.00  0.00    +0.000 C 
ATOM     12  C   UNL     1      -1.746  -7.163  31.120  0.00  0.00    +0.000 C 
ATOM     13  C   UNL     1      -2.543  -6.481  32.011  0.00  0.00    +0.000 C 
ATOM     14  C   UNL     1      -2.878  -5.158  31.763  0.00  0.00    +0.003 C 
ENDROOT
BRANCH  11  15
ATOM     15  C   UNL     1      -0.431  -7.305  29.021  0.00  0.00    +0.000 C 
ATOM     16  C   UNL     1       0.909  -7.012  28.963  0.00  0.00    +0.002 C 
ATOM     17  C   UNL     1       1.764  -7.640  28.095  0.00  0.00    +0.019 C 
ATOM     18  C   UNL     1       1.231  -8.613  27.246  0.00  0.00    +0.081 C 
ATOM     19  C   UNL     1      -0.102  -8.925  27.286  0.00  0.00    +0.018 C 
ATOM     20  C   UNL     1      -0.921  -8.265  28.179  0.00  0.00    +0.001 C 
ATOM     21  C   UNL     1      -0.629  -9.893  26.427  0.00  0.00    +0.003 C 
ATOM     22  C   UNL     1       0.232 -10.520  25.540  0.00  0.00    +0.021 C 
ATOM     23  C   UNL     1       1.559 -10.165  25.542  0.00  0.00    +0.099 C 
ATOM     24  N   UNL     1       2.038  -9.245  26.367  0.00  0.00    -0.244 NA
ENDBRANCH  11  15
BRANCH   7  25
ATOM     25  N   UNL     1      -3.233  -0.428  29.833  0.00  0.00    -0.263 N 
ATOM     26  H   UNL     1      -3.902  -0.760  30.474  0.00  0.00    +0.170 HD
BRANCH  25  27
ATOM     27  N   UNL     1      -2.932   0.928  29.705  0.00  0.00    -0.229 N 
ATOM     28  C   UNL     1      -3.861   1.797  29.089  0.00  0.00    +0.316 C 
ATOM     29  O   UNL     1      -4.947   1.312  28.671  0.00  0.00    -0.264 OA
ATOM     30  H   UNL     1      -2.076   1.278  30.042  0.00  0.00    +0.173 HD
ENDBRANCH  25  27
ENDBRANCH   7  25
BRANCH   1  31
ATOM     31  O   UNL     1      -3.524  -2.577  31.312  0.00  0.00    -0.457 OA
BRANCH  31  32
ATOM     32  C   UNL     1      -4.837  -2.340  31.575  0.00  0.00    +0.134 C 
ATOM     33  C   UNL     1      -5.692  -3.144  32.123  0.00  0.00    +0.076 C 
ATOM     34  C   UNL     1      -7.098  -2.764  32.352  0.00  0.00    +0.204 C 
ATOM     35  O   UNL     1      -7.923  -3.545  32.880  0.00  0.00    -0.286 OA
ATOM     36  C   UNL     1      -7.527  -1.418  31.934  0.00  0.00    +0.111 C 
ATOM     37  C   UNL     1      -6.651  -0.637  31.390  0.00  0.00    +0.125 C 
ATOM     38  C   UNL     1      -5.266  -0.963  31.151  0.00  0.00    +0.128 C 
BRANCH  37  39
ATOM     39  O   UNL     1      -7.107   0.653  30.999  0.00  0.00    -0.509 OA
ATOM     40  H   UNL     1      -8.001   0.897  31.140  0.00  0.00    +0.292 HD
ENDBRANCH  37  39
BRANCH  36  41
ATOM     41  C   UNL     1      -8.919  -0.987  32.136  0.00  0.00    +0.240 C 
ATOM     42  O   UNL     1      -9.259   0.121  31.653  0.00  0.00    -0.283 OA
ENDBRANCH  36  41
ENDBRANCH  31  32
ENDBRANCH   1  31
TORSDOF 7
