REMARK  Name = =
REMARK  6 active torsions:
REMARK  status: ('A' for Active; 'I' for Inactive)
REMARK    1  A    between atoms: C_1  and  N_6
REMARK    2  A    between atoms: C_1  and  N_11
REMARK    3  A    between atoms: C_5  and  N_19
REMARK    4  A    between atoms: N_11  and  S_12
REMARK    5  A    between atoms: S_12  and  N_15
REMARK    6  A    between atoms: C_16  and  O_18
REMARK                            x       y       z     vdW  Elec       q    Type
REMARK                         _______ _______ _______ _____ _____    ______ ____
ROOT
ATOM      1  C   UNL     1      -8.413  -1.028  31.547  0.00  0.00    +0.164 C 
ATOM      2  C   UNL     1      -8.311  -1.957  30.312  0.00  0.00    +0.039 C 
ATOM      3  C   UNL     1      -9.639  -1.736  29.627  0.00  0.00    +0.005 C 
ATOM      4  C   UNL     1     -10.151  -0.411  30.091  0.00  0.00    +0.028 C 
ATOM      5  C   UNL     1      -8.960   0.196  30.833  0.00  0.00    +0.137 C 
ENDROOT
BRANCH   1   6
ATOM      6  N   UNL     1      -9.321  -1.587  32.500  0.00  0.00    -0.177 N 
ATOM      7  N   UNL     1     -10.403  -1.017  33.054  0.00  0.00    -0.153 NA
ATOM      8  C   UNL     1     -10.982  -1.874  33.898  0.00  0.00    +0.219 C 
ATOM      9  N   UNL     1     -10.289  -3.005  33.902  0.00  0.00    -0.203 NA
ATOM     10  C   UNL     1      -9.254  -2.826  33.032  0.00  0.00    +0.187 C 
ENDBRANCH   1   6
BRANCH   1  11
ATOM     11  N   UNL     1      -7.069  -0.877  32.009  0.00  0.00    -0.149 NA
ATOM     12  H   UNL     1      -7.106  -0.445  32.932  0.00  0.00    +0.152 HD
BRANCH  11  13
ATOM     13  S   UNL     1      -6.144  -2.294  32.142  0.00  0.00    +0.116 S 
ATOM     14  O   UNL     1      -6.656  -3.442  31.300  0.00  0.00    -0.138 OA
ATOM     15  O   UNL     1      -6.048  -2.743  33.601  0.00  0.00    -0.138 OA
BRANCH  13  16
ATOM     16  N   UNL     1      -4.531  -1.959  31.655  0.00  0.00    -0.141 N 
ATOM     17  C   UNL     1      -3.628  -3.026  31.535  0.00  0.00    +0.418 C 
ATOM     18  O   UNL     1      -4.017  -4.214  31.788  0.00  0.00    -0.225 OA
ATOM     19  H   UNL     1      -4.246  -1.036  31.464  0.00  0.00    +0.181 HD
BRANCH  17  20
ATOM     20  O   UNL     1      -2.308  -2.814  31.145  0.00  0.00    -0.465 OA
ATOM     21  H   UNL     1      -2.009  -1.946  30.956  0.00  0.00    +0.297 HD
ENDBRANCH  17  20
ENDBRANCH  13  16
ENDBRANCH  11  13
ENDBRANCH   1  11
BRANCH   5  22
ATOM     22  N   UNL     1      -9.333   1.265  31.662  0.00  0.00    -0.266 NA
ATOM     23  C   UNL     1      -8.912   2.445  31.393  0.00  0.00    +0.113 C 
ENDBRANCH   5  22
TORSDOF 6
