REMARK  Name = =
REMARK  0 active torsions:
REMARK  status: ('A' for Active; 'I' for Inactive)
REMARK                            x       y       z     vdW  Elec       q    Type
REMARK                         _______ _______ _______ _____ _____    ______ ____
ROOT
ATOM      1  N   UNL     1      -1.313  -3.161  30.665  0.00  0.00    -0.297 NA
ATOM      2  C   UNL     1      -1.226  -3.140  29.237  0.00  0.00    +0.069 C 
ATOM      3  C   UNL     1      -2.530  -3.341  28.536  0.00  0.00    +0.017 C 
ATOM      4  C   UNL     1      -3.453  -4.303  29.196  0.00  0.00    +0.003 C 
ATOM      5  C   UNL     1      -3.420  -4.263  30.693  0.00  0.00    +0.017 C 
ATOM      6  C   UNL     1      -2.683  -2.984  31.094  0.00  0.00    +0.069 C 
ATOM      7  H   UNL     1      -0.967  -4.057  31.009  0.00  0.00    +0.123 HD
ENDROOT
TORSDOF 0
