REMARK  Name = =
REMARK  1 active torsions:
REMARK  status: ('A' for Active; 'I' for Inactive)
REMARK    1  A    between atoms: C_6  and  C_7
REMARK                            x       y       z     vdW  Elec       q    Type
REMARK                         _______ _______ _______ _____ _____    ______ ____
ROOT
ATOM      1  N   UNL     1      -1.615  -2.672  30.623  0.00  0.00    -0.293 NA
ATOM      2  C   UNL     1      -0.733  -2.990  29.568  0.00  0.00    +0.069 C 
ATOM      3  C   UNL     1      -1.420  -3.306  28.259  0.00  0.00    +0.017 C 
ATOM      4  C   UNL     1      -2.914  -3.446  28.508  0.00  0.00    +0.003 C 
ATOM      5  C   UNL     1      -3.077  -4.353  29.721  0.00  0.00    +0.024 C 
ATOM      6  C   UNL     1      -2.647  -3.575  30.923  0.00  0.00    +0.112 C 
ATOM      7  H   UNL     1      -1.051  -2.567  31.467  0.00  0.00    +0.124 HD
ENDROOT
BRANCH   6   8
ATOM      8  C   UNL     1      -3.856  -2.823  31.411  0.00  0.00    +0.140 C 
ATOM      9  C   UNL     1      -4.701  -3.411  32.341  0.00  0.00    +0.076 C 
ATOM     10  C   UNL     1      -5.823  -2.773  32.825  0.00  0.00    +0.202 C 
ATOM     11  O   UNL     1      -6.587  -3.320  33.674  0.00  0.00    -0.286 OA
ATOM     12  C   UNL     1      -6.085  -1.495  32.343  0.00  0.00    +0.083 C 
ATOM     13  C   UNL     1      -5.208  -0.957  31.415  0.00  0.00    +0.182 C 
ATOM     14  O   UNL     1      -4.149  -1.629  30.995  0.00  0.00    -0.453 OA
ENDBRANCH   6   8
TORSDOF 1
