REMARK  Name = =
REMARK  3 active torsions:
REMARK  status: ('A' for Active; 'I' for Inactive)
REMARK    1  A    between atoms: N_1  and  S_14
REMARK    2  A    between atoms: C_6  and  C_7
REMARK    3  A    between atoms: S_14  and  N_17
REMARK                            x       y       z     vdW  Elec       q    Type
REMARK                         _______ _______ _______ _____ _____    ______ ____
ROOT
ATOM      1  N   UNL     1      -2.821  -2.679  29.279  0.00  0.00    -0.140 NA
ATOM      2  C   UNL     1      -1.989  -3.491  28.409  0.00  0.00    +0.097 C 
ATOM      3  C   UNL     1      -2.356  -4.958  28.518  0.00  0.00    +0.019 C 
ATOM      4  C   UNL     1      -2.126  -5.374  29.943  0.00  0.00    +0.003 C 
ATOM      5  C   UNL     1      -1.688  -4.241  30.809  0.00  0.00    +0.026 C 
ATOM      6  C   UNL     1      -2.467  -2.984  30.642  0.00  0.00    +0.138 C 
ENDROOT
BRANCH   6   7
ATOM      7  C   UNL     1      -3.712  -2.952  31.445  0.00  0.00    +0.142 C 
ATOM      8  C   UNL     1      -4.888  -2.554  30.839  0.00  0.00    +0.076 C 
ATOM      9  C   UNL     1      -6.061  -2.516  31.567  0.00  0.00    +0.202 C 
ATOM     10  O   UNL     1      -7.158  -2.155  31.042  0.00  0.00    -0.286 OA
ATOM     11  C   UNL     1      -6.017  -2.885  32.895  0.00  0.00    +0.083 C 
ATOM     12  C   UNL     1      -4.823  -3.268  33.426  0.00  0.00    +0.182 C 
ATOM     13  O   UNL     1      -3.728  -3.293  32.714  0.00  0.00    -0.453 OA
ENDBRANCH   6   7
BRANCH   1  14
ATOM     14  S   UNL     1      -2.417  -1.021  28.901  0.00  0.00    +0.096 S 
ATOM     15  O   UNL     1      -3.386  -0.143  29.624  0.00  0.00    -0.141 OA
ATOM     16  O   UNL     1      -0.990  -0.736  29.338  0.00  0.00    -0.141 OA
BRANCH  14  17
ATOM     17  N   UNL     1      -2.493  -0.740  27.214  0.00  0.00    -0.193 NA
ATOM     18  H   UNL     1      -1.826  -1.347  26.738  0.00  0.00    +0.145 HD
ATOM     19  H   UNL     1      -2.263   0.235  27.021  0.00  0.00    +0.145 HD
ENDBRANCH  14  17
ENDBRANCH   1  14
TORSDOF 3
