REMARK  Name = =
REMARK  5 active torsions:
REMARK  status: ('A' for Active; 'I' for Inactive)
REMARK    1  A    between atoms: S_1  and  N_4
REMARK    2  A    between atoms: S_1  and  N_17
REMARK    3  A    between atoms: C_9  and  C_10
REMARK    4  A    between atoms: N_17  and  N_18
REMARK    5  A    between atoms: C_23  and  O_28
REMARK                            x       y       z     vdW  Elec       q    Type
REMARK                         _______ _______ _______ _____ _____    ______ ____
ROOT
ATOM      1  S   UNL     1      -5.991  -2.079  32.739  0.00  0.00    +0.114 S 
ATOM      2  O   UNL     1      -5.706  -0.908  31.831  0.00  0.00    -0.140 OA
ATOM      3  O   UNL     1      -5.294  -1.778  34.051  0.00  0.00    -0.140 OA
ENDROOT
BRANCH   1   4
ATOM      4  N   UNL     1      -5.301  -3.505  32.108  0.00  0.00    -0.138 NA
ATOM      5  C   UNL     1      -5.542  -3.707  30.712  0.00  0.00    +0.097 C 
ATOM      6  C   UNL     1      -4.311  -3.691  29.847  0.00  0.00    +0.019 C 
ATOM      7  C   UNL     1      -3.300  -2.712  30.330  0.00  0.00    +0.003 C 
ATOM      8  C   UNL     1      -2.948  -2.886  31.786  0.00  0.00    +0.026 C 
ATOM      9  C   UNL     1      -3.958  -3.724  32.524  0.00  0.00    +0.138 C 
BRANCH   9  10
ATOM     10  C   UNL     1      -3.662  -5.184  32.389  0.00  0.00    +0.142 C 
ATOM     11  C   UNL     1      -4.433  -6.071  33.094  0.00  0.00    +0.076 C 
ATOM     12  C   UNL     1      -4.223  -7.436  33.022  0.00  0.00    +0.202 C 
ATOM     13  O   UNL     1      -4.919  -8.274  33.661  0.00  0.00    -0.286 OA
ATOM     14  C   UNL     1      -3.199  -7.872  32.208  0.00  0.00    +0.083 C 
ATOM     15  C   UNL     1      -2.468  -6.918  31.531  0.00  0.00    +0.182 C 
ATOM     16  O   UNL     1      -2.706  -5.637  31.633  0.00  0.00    -0.453 OA
ENDBRANCH   9  10
ENDBRANCH   1   4
BRANCH   1  17
ATOM     17  N   UNL     1      -7.678  -2.165  32.946  0.00  0.00    -0.090 NA
ATOM     18  H   UNL     1      -7.911  -1.581  33.749  0.00  0.00    +0.173 HD
BRANCH  17  19
ATOM     19  N   UNL     1      -8.508  -1.769  31.900  0.00  0.00    -0.176 N 
ATOM     20  C   UNL     1      -8.731  -0.548  31.386  0.00  0.00    +0.177 A 
ATOM     21  N   UNL     1      -8.229   0.662  31.711  0.00  0.00    -0.196 NA
ATOM     22  C   UNL     1      -8.626   1.763  31.019  0.00  0.00    +0.218 A 
ATOM     23  N   UNL     1      -9.507   1.689  30.016  0.00  0.00    -0.178 NA
ATOM     24  C   UNL     1     -10.043   0.513  29.645  0.00  0.00    +0.245 A 
ATOM     25  C   UNL     1      -9.639  -0.609  30.350  0.00  0.00    +0.169 A 
ATOM     26  N   UNL     1      -9.963  -1.908  30.248  0.00  0.00    -0.219 NA
ATOM     27  C   UNL     1      -9.274  -2.613  31.192  0.00  0.00    +0.185 C 
ATOM     28  N   UNL     1      -8.087   3.040  31.371  0.00  0.00    -0.327 N 
ATOM     29  H   UNL     1      -7.437   3.114  32.107  0.00  0.00    +0.145 HD
ATOM     30  H   UNL     1      -8.366   3.845  30.878  0.00  0.00    +0.145 HD
BRANCH  24  31
ATOM     31  O   UNL     1     -10.967   0.430  28.594  0.00  0.00    -0.491 OA
ATOM     32  H   UNL     1     -11.223   1.205  28.133  0.00  0.00    +0.294 HD
ENDBRANCH  24  31
ENDBRANCH  17  19
ENDBRANCH   1  17
TORSDOF 5
