REMARK  Name = =
REMARK  6 active torsions:
REMARK  status: ('A' for Active; 'I' for Inactive)
REMARK    1  A    between atoms: N_1  and  S_19
REMARK    2  A    between atoms: C_6  and  C_7
REMARK    3  A    between atoms: O_15  and  O_18
REMARK    4  A    between atoms: S_19  and  N_22
REMARK    5  A    between atoms: N_22  and  N_23
REMARK    6  A    between atoms: C_28  and  O_33
REMARK                            x       y       z     vdW  Elec       q    Type
REMARK                         _______ _______ _______ _____ _____    ______ ____
ROOT
ATOM      1  S   UNL     1      -1.647   0.511  21.258  0.00  0.00    +0.114 S 
ATOM      2  O   UNL     1      -2.281   0.484  19.895  0.00  0.00    -0.140 OA
ATOM      3  O   UNL     1      -2.148   1.815  21.898  0.00  0.00    -0.140 OA
ENDROOT
BRANCH   1   4
ATOM      4  N   UNL     1       0.068   0.589  21.147  0.00  0.00    -0.138 NA
ATOM      5  C   UNL     1       0.690  -0.290  22.029  0.00  0.00    +0.097 C 
ATOM      6  C   UNL     1       1.507  -1.395  21.428  0.00  0.00    +0.019 C 
ATOM      7  C   UNL     1       2.289  -0.995  20.223  0.00  0.00    +0.003 C 
ATOM      8  C   UNL     1       1.302  -0.401  19.240  0.00  0.00    +0.026 C 
ATOM      9  C   UNL     1       0.508   0.735  19.819  0.00  0.00    +0.138 C 
BRANCH   9  10
ATOM     10  C   UNL     1       1.174   2.060  19.551  0.00  0.00    +0.142 C 
ATOM     11  C   UNL     1       0.908   2.718  18.374  0.00  0.00    +0.076 C 
ATOM     12  C   UNL     1       1.493   3.927  18.093  0.00  0.00    +0.202 C 
ATOM     13  O   UNL     1       1.242   4.523  17.009  0.00  0.00    -0.286 OA
ATOM     14  C   UNL     1       2.358   4.464  19.024  0.00  0.00    +0.083 C 
ATOM     15  C   UNL     1       2.587   3.769  20.176  0.00  0.00    +0.182 C 
ATOM     16  O   UNL     1       2.005   2.616  20.404  0.00  0.00    -0.453 OA
ENDBRANCH   9  10
ENDBRANCH   1   4
BRANCH   1  17
ATOM     17  N   UNL     1      -2.142  -0.742  22.283  0.00  0.00    -0.090 NA
ATOM     18  H   UNL     1      -2.494  -0.293  23.129  0.00  0.00    +0.173 HD
BRANCH  17  19
ATOM     19  N   UNL     1      -3.101  -1.675  21.916  0.00  0.00    -0.176 N 
ATOM     20  C   UNL     1      -4.444  -1.414  21.934  0.00  0.00    +0.177 A 
ATOM     21  N   UNL     1      -5.121  -0.302  22.286  0.00  0.00    -0.196 NA
ATOM     22  C   UNL     1      -6.456  -0.270  22.224  0.00  0.00    +0.218 A 
ATOM     23  N   UNL     1      -7.097  -1.378  21.803  0.00  0.00    -0.178 NA
ATOM     24  C   UNL     1      -6.470  -2.508  21.443  0.00  0.00    +0.245 A 
ATOM     25  C   UNL     1      -5.080  -2.545  21.505  0.00  0.00    +0.169 A 
ATOM     26  N   UNL     1      -4.155  -3.468  21.233  0.00  0.00    -0.219 NA
ATOM     27  C   UNL     1      -2.938  -2.930  21.487  0.00  0.00    +0.185 C 
ATOM     28  N   UNL     1      -7.224   0.868  22.580  0.00  0.00    -0.327 N 
ATOM     29  H   UNL     1      -6.775   1.687  22.890  0.00  0.00    +0.145 HD
ATOM     30  H   UNL     1      -8.206   0.838  22.517  0.00  0.00    +0.145 HD
BRANCH  24  31
ATOM     31  O   UNL     1      -7.122  -3.639  21.012  0.00  0.00    -0.491 OA
ATOM     32  H   UNL     1      -6.631  -4.401  20.773  0.00  0.00    +0.294 HD
ENDBRANCH  24  31
ENDBRANCH  17  19
ENDBRANCH   1  17
TORSDOF 5
REMARK  Name = =
REMARK  6 active torsions:
REMARK  status: ('A' for Active; 'I' for Inactive)
REMARK    1  A    between atoms: N_1  and  S_19
REMARK    2  A    between atoms: C_6  and  C_7
REMARK    3  A    between atoms: O_15  and  O_18
REMARK    4  A    between atoms: S_19  and  N_22
REMARK    5  A    between atoms: N_22  and  N_23
REMARK    6  A    between atoms: C_28  and  O_33
REMARK                            x       y       z     vdW  Elec       q    Type
REMARK                         _______ _______ _______ _____ _____    ______ ____
ROOT
ATOM      1  P   UNL     1       3.127  -2.356  19.623  0.00  0.00    +0.000 P 
ENDROOT
TORSDOF 0
REMARK  Name = =
REMARK  6 active torsions:
REMARK  status: ('A' for Active; 'I' for Inactive)
REMARK    1  A    between atoms: N_1  and  S_19
REMARK    2  A    between atoms: C_6  and  C_7
REMARK    3  A    between atoms: O_15  and  O_18
REMARK    4  A    between atoms: S_19  and  N_22
REMARK    5  A    between atoms: N_22  and  N_23
REMARK    6  A    between atoms: C_28  and  O_33
REMARK                            x       y       z     vdW  Elec       q    Type
REMARK                         _______ _______ _______ _____ _____    ______ ____
ROOT
ATOM      1  O   UNL     1       2.773  -2.342  18.141  0.00  0.00    -0.253 OA
ATOM      2  H   UNL     1       2.109  -2.770  17.578  0.00  0.00    +0.253 HD
ENDROOT
BRANCH   1   3
ATOM      3  O   UNL     1       3.814  -3.379  18.582  0.00  0.00    -0.253 OA
ATOM      4  H   UNL     1       4.478  -2.951  19.145  0.00  0.00    +0.253 HD
ENDBRANCH   1   3
TORSDOF 1
REMARK  Name = =
REMARK  6 active torsions:
REMARK  status: ('A' for Active; 'I' for Inactive)
REMARK    1  A    between atoms: N_1  and  S_19
REMARK    2  A    between atoms: C_6  and  C_7
REMARK    3  A    between atoms: O_15  and  O_18
REMARK    4  A    between atoms: S_19  and  N_22
REMARK    5  A    between atoms: N_22  and  N_23
REMARK    6  A    between atoms: C_28  and  O_33
REMARK                            x       y       z     vdW  Elec       q    Type
REMARK                         _______ _______ _______ _____ _____    ______ ____
ROOT
ATOM      1  O   HOH     1       1.737  -3.358  19.641  0.00  0.00    -0.253 OA
ATOM      2  H   HOH     0       2.707  -3.358  19.641  0.00  0.00    +0.253 HD
ENDROOT
TORSDOF 0
REMARK  Name = =
REMARK  6 active torsions:
REMARK  status: ('A' for Active; 'I' for Inactive)
REMARK    1  A    between atoms: N_1  and  S_19
REMARK    2  A    between atoms: C_6  and  C_7
REMARK    3  A    between atoms: O_15  and  O_18
REMARK    4  A    between atoms: S_19  and  N_22
REMARK    5  A    between atoms: N_22  and  N_23
REMARK    6  A    between atoms: C_28  and  O_33
REMARK                            x       y       z     vdW  Elec       q    Type
REMARK                         _______ _______ _______ _____ _____    ______ ____
ROOT
ATOM      1  O   HOH     1       4.122  -2.432  21.019  0.00  0.00    -0.253 OA
ATOM      2  H   HOH     0       5.092  -2.432  21.019  0.00  0.00    +0.253 HD
ENDROOT
TORSDOF 0
