REMARK  Name = =
REMARK  1 active torsions:
REMARK  status: ('A' for Active; 'I' for Inactive)
REMARK    1  A    between atoms: C_4  and  C_7
REMARK                            x       y       z     vdW  Elec       q    Type
REMARK                         _______ _______ _______ _____ _____    ______ ____
ROOT
ATOM      1  N   UNL     1     -16.257 -41.853  28.033  0.00  0.00    -0.213 NA
ATOM      2  C   UNL     1     -15.758 -42.447  26.811  0.00  0.00    +0.094 C 
ATOM      3  C   UNL     1     -16.576 -42.126  25.615  0.00  0.00    +0.045 C 
ATOM      4  C   UNL     1     -17.948 -41.623  25.933  0.00  0.00    -0.024 C 
ATOM      5  C   UNL     1     -18.436 -41.647  27.147  0.00  0.00    -0.012 C 
ATOM      6  C   UNL     1     -17.626 -42.188  28.282  0.00  0.00    +0.114 C 
ENDROOT
BRANCH   4   7
ATOM      7  C   UNL     1     -18.742 -41.097  24.846  0.00  0.00    -0.004 C 
ATOM      8  C   UNL     1     -20.037 -40.662  24.985  0.00  0.00    -0.000 C 
ATOM      9  C   UNL     1     -20.732 -40.169  23.882  0.00  0.00    -0.000 C 
ATOM     10  C   UNL     1     -20.134 -40.108  22.634  0.00  0.00    -0.000 C 
ATOM     11  C   UNL     1     -18.842 -40.537  22.475  0.00  0.00    -0.000 C 
ATOM     12  C   UNL     1     -18.176 -41.021  23.581  0.00  0.00    -0.000 C 
ENDBRANCH   4   7
TORSDOF 1
