REMARK  Name = =
REMARK  14 active torsions:
REMARK  status: ('A' for Active; 'I' for Inactive)
REMARK    1  A    between atoms: N_1  and  S_23
REMARK    2  A    between atoms: C_2  and  C_7
REMARK    3  A    between atoms: C_4  and  C_17
REMARK    4  A    between atoms: C_9  and  O_16
REMARK    5  A    between atoms: C_10  and  C_13
REMARK    6  A    between atoms: C_13  and  O_15
REMARK    7  A    between atoms: S_23  and  S_24
REMARK    8  A    between atoms: S_23  and  S_25
REMARK    9  A    between atoms: S_25  and  N_26
REMARK   10  A    between atoms: S_25  and  O_31
REMARK   11  A    between atoms: O_31  and  P_32
REMARK   12  A    between atoms: P_32  and  C_34
REMARK   13  A    between atoms: P_32  and  O_37
REMARK   14  A    between atoms: C_34  and  O_36
REMARK                            x       y       z     vdW  Elec       q    Type
REMARK                         _______ _______ _______ _____ _____    ______ ____
ROOT
ATOM      1  N   UNL     1     -23.446 -43.245  24.663  0.00  0.00    -0.228 NA
ATOM      2  C   UNL     1     -23.724 -44.227  25.661  0.00  0.00    +0.090 C 
ATOM      3  C   UNL     1     -24.407 -45.479  25.127  0.00  0.00    +0.026 C 
ATOM      4  C   UNL     1     -23.809 -45.923  23.852  0.00  0.00    +0.025 C 
ATOM      5  C   UNL     1     -23.672 -44.955  22.958  0.00  0.00    +0.023 C 
ATOM      6  C   UNL     1     -24.159 -43.613  23.447  0.00  0.00    +0.084 C 
ENDROOT
BRANCH   2   7
ATOM      7  C   UNL     1     -24.538 -43.728  26.784  0.00  0.00    -0.004 C 
ATOM      8  C   UNL     1     -25.824 -44.129  27.021  0.00  0.00    +0.034 C 
ATOM      9  C   UNL     1     -26.587 -43.636  28.116  0.00  0.00    +0.140 C 
ATOM     10  C   UNL     1     -26.042 -42.726  28.980  0.00  0.00    +0.109 C 
ATOM     11  C   UNL     1     -24.719 -42.318  28.731  0.00  0.00    +0.009 C 
ATOM     12  C   UNL     1     -24.015 -42.815  27.666  0.00  0.00    -0.003 C 
BRANCH  10  13
ATOM     13  C   UNL     1     -26.735 -42.160  30.127  0.00  0.00    +0.341 C 
ATOM     14  O   UNL     1     -27.940 -42.297  30.325  0.00  0.00    -0.245 OA
BRANCH  13  15
ATOM     15  O   UNL     1     -26.019 -41.411  31.081  0.00  0.00    -0.477 OA
ATOM     16  H   UNL     1     -25.098 -41.277  30.976  0.00  0.00    +0.295 HD
ENDBRANCH  13  15
ENDBRANCH  10  13
BRANCH   9  17
ATOM     17  O   UNL     1     -27.869 -44.104  28.264  0.00  0.00    -0.505 OA
ATOM     18  H   UNL     1     -28.213 -44.727  27.655  0.00  0.00    +0.292 HD
ENDBRANCH   9  17
ENDBRANCH   2   7
BRANCH   4  19
ATOM     19  C   UNL     1     -23.405 -47.299  23.600  0.00  0.00    -0.022 C 
ATOM     20  C   UNL     1     -23.724 -48.283  24.499  0.00  0.00    -0.004 C 
ATOM     21  C   UNL     1     -23.330 -49.586  24.244  0.00  0.00    -0.000 C 
ATOM     22  C   UNL     1     -22.626 -49.967  23.126  0.00  0.00    -0.000 C 
ATOM     23  C   UNL     1     -22.320 -48.958  22.239  0.00  0.00    -0.000 C 
ATOM     24  C   UNL     1     -22.694 -47.646  22.455  0.00  0.00    -0.004 C 
ENDBRANCH   4  19
BRANCH   1  25
ATOM     25  S   UNL     1     -22.280 -42.392  24.660  0.00  0.00    -0.080 S 
ATOM     26  H   UNL     1     -22.336 -41.279  25.440  0.00  0.00    +0.121 HD
BRANCH  25  27
ATOM     27  S   UNL     1     -21.157 -43.477  25.025  0.00  0.00    -0.108 S 
ATOM     28  H   UNL     1     -21.235 -44.520  24.156  0.00  0.00    +0.114 HD
ENDBRANCH  25  27
BRANCH  25  29
ATOM     29  S   UNL     1     -21.966 -41.954  22.767  0.00  0.00    +0.009 S 
ATOM     30  H   UNL     1     -22.305 -42.885  21.836  0.00  0.00    +0.142 HD
BRANCH  29  31
ATOM     31  N   UNL     1     -20.371 -41.550  22.874  0.00  0.00    -0.113 N 
ATOM     32  N   UNL     1     -19.311 -42.145  22.356  0.00  0.00    -0.041 NA
ATOM     33  N   UNL     1     -18.210 -41.521  22.690  0.00  0.00    -0.024 NA
ATOM     34  N   UNL     1     -18.537 -40.492  23.442  0.00  0.00    -0.107 NA
ATOM     35  C   UNL     1     -19.874 -40.504  23.559  0.00  0.00    +0.223 C 
ENDBRANCH  29  31
BRANCH  29  36
ATOM     36  O   UNL     1     -22.678 -40.689  22.559  0.00  0.00    -0.225 OA
BRANCH  36  37
ATOM     37  P   UNL     1     -23.010 -40.094  21.043  0.00  0.00    +0.448 P 
ATOM     38  O   UNL     1     -22.453 -40.928  19.922  0.00  0.00    -0.246 OA
BRANCH  37  39
ATOM     39  C   UNL     1     -22.459 -38.401  20.965  0.00  0.00    +0.419 C 
ATOM     40  O   UNL     1     -22.532 -37.679  21.996  0.00  0.00    -0.237 OA
BRANCH  39  41
ATOM     41  O   UNL     1     -21.946 -37.840  19.800  0.00  0.00    -0.472 OA
ATOM     42  H   UNL     1     -21.881 -38.356  19.021  0.00  0.00    +0.296 HD
ENDBRANCH  39  41
ENDBRANCH  37  39
BRANCH  37  43
ATOM     43  O   UNL     1     -24.713 -40.083  20.875  0.00  0.00    -0.316 OA
ATOM     44  H   UNL     1     -25.048 -40.993  20.913  0.00  0.00    +0.220 HD
ENDBRANCH  37  43
ENDBRANCH  36  37
ENDBRANCH  29  36
ENDBRANCH  25  29
ENDBRANCH   1  25
TORSDOF 14
