REMARK  Name = =
REMARK  0 active torsions:
REMARK  status: ('A' for Active; 'I' for Inactive)
REMARK                            x       y       z     vdW  Elec       q    Type
REMARK                         _______ _______ _______ _____ _____    ______ ____
ROOT
ATOM      1  N   UNL     1      52.128 155.208  29.025  0.00  0.00    -0.279 N 
ATOM      2  C   UNL     1      52.445 156.391  28.478  0.00  0.00    +0.250 C 
ATOM      3  O   UNL     1      52.416 157.425  29.191  0.00  0.00    -0.270 OA
ATOM      4  C   UNL     1      52.804 156.490  27.128  0.00  0.00    +0.058 C 
ATOM      5  C   UNL     1      52.834 155.351  26.350  0.00  0.00    +0.006 C 
ATOM      6  C   UNL     1      52.506 154.130  26.924  0.00  0.00    +0.016 C 
ATOM      7  C   UNL     1      52.157 154.101  28.274  0.00  0.00    +0.064 C 
ATOM      8  H   UNL     1      51.875 155.154  29.975  0.00  0.00    +0.155 HD
ENDROOT
TORSDOF 0
