REMARK  Name = =
REMARK  4 active torsions:
REMARK  status: ('A' for Active; 'I' for Inactive)
REMARK    1  A    between atoms: C_1  and  C_24
REMARK    2  A    between atoms: C_7  and  O_30
REMARK    3  A    between atoms: C_15  and  O_29
REMARK    4  A    between atoms: C_18  and  O_28
REMARK                            x       y       z     vdW  Elec       q    Type
REMARK                         _______ _______ _______ _____ _____    ______ ____
ROOT
ATOM      1  C   UNL     1      50.828 157.083  30.231  0.00  0.00    +0.052 C 
ATOM      2  C   UNL     1      49.387 156.593  30.436  0.00  0.00    +0.009 C 
ATOM      3  C   UNL     1      49.370 155.122  30.757  0.00  0.00    +0.005 C 
ATOM      4  C   UNL     1      50.703 154.453  30.746  0.00  0.00    +0.026 C 
ATOM      5  C   UNL     1      51.432 154.871  29.508  0.00  0.00    -0.023 C 
ATOM      6  C   UNL     1      51.503 156.226  29.247  0.00  0.00    +0.012 C 
ATOM      7  C   UNL     1      52.169 156.638  28.113  0.00  0.00    +0.133 C 
ATOM      8  C   UNL     1      52.753 155.701  27.260  0.00  0.00    +0.075 C 
ATOM      9  C   UNL     1      52.663 154.359  27.551  0.00  0.00    +0.045 C 
ATOM     10  C   UNL     1      51.986 153.923  28.705  0.00  0.00    -0.001 C 
ATOM     11  C   UNL     1      53.269 153.381  26.671  0.00  0.00    +0.199 C 
ATOM     12  O   UNL     1      53.155 152.166  26.987  0.00  0.00    -0.286 OA
ATOM     13  C   UNL     1      53.977 153.777  25.477  0.00  0.00    +0.079 C 
ATOM     14  C   UNL     1      54.085 155.127  25.158  0.00  0.00    +0.079 C 
ATOM     15  C   UNL     1      54.740 155.603  24.047  0.00  0.00    +0.137 C 
ATOM     16  C   UNL     1      55.312 154.651  23.224  0.00  0.00    +0.040 C 
ATOM     17  C   UNL     1      55.233 153.309  23.495  0.00  0.00    +0.040 C 
ATOM     18  C   UNL     1      54.565 152.845  24.626  0.00  0.00    +0.137 C 
ATOM     19  C   UNL     1      53.462 156.118  26.063  0.00  0.00    +0.202 C 
ATOM     20  O   UNL     1      53.556 157.339  25.778  0.00  0.00    -0.286 OA
ENDROOT
BRANCH   1  24
ATOM     21  N   UNL     1      52.053 160.544  29.813  0.00  0.00    -0.280 N 
ATOM     22  C   UNL     1      52.019 159.208  30.039  0.00  0.00    +0.246 C 
ATOM     23  O   UNL     1      53.148 158.670  30.290  0.00  0.00    -0.270 OA
ATOM     24  C   UNL     1      50.836 158.504  29.995  0.00  0.00    +0.035 C 
ATOM     25  C   UNL     1      49.688 159.200  29.715  0.00  0.00    +0.002 C 
ATOM     26  C   UNL     1      49.742 160.582  29.484  0.00  0.00    +0.016 C 
ATOM     27  C   UNL     1      50.947 161.228  29.542  0.00  0.00    +0.064 C 
ATOM     28  H   UNL     1      52.915 161.017  29.850  0.00  0.00    +0.155 HD
ENDBRANCH   1  24
BRANCH  18  29
ATOM     29  O   UNL     1      54.512 151.501  24.858  0.00  0.00    -0.505 OA
ATOM     30  H   UNL     1      54.921 150.906  24.261  0.00  0.00    +0.292 HD
ENDBRANCH  18  29
BRANCH  15  31
ATOM     31  O   UNL     1      54.797 156.965  23.808  0.00  0.00    -0.505 OA
ATOM     32  H   UNL     1      54.389 157.563  24.403  0.00  0.00    +0.292 HD
ENDBRANCH  15  31
BRANCH   7  33
ATOM     33  O   UNL     1      52.228 157.957  27.875  0.00  0.00    -0.506 OA
ATOM     34  H   UNL     1      51.825 158.559  28.469  0.00  0.00    +0.292 HD
ENDBRANCH   7  33
TORSDOF 4
