REMARK  Name = =
REMARK  5 active torsions:
REMARK  status: ('A' for Active; 'I' for Inactive)
REMARK    1  A    between atoms: C_1  and  C_24
REMARK    2  A    between atoms: C_1  and  C_31
REMARK    3  A    between atoms: C_7  and  O_30
REMARK    4  A    between atoms: C_15  and  O_29
REMARK    5  A    between atoms: C_18  and  O_28
REMARK                            x       y       z     vdW  Elec       q    Type
REMARK                         _______ _______ _______ _____ _____    ______ ____
ROOT
ATOM      1  C   UNL     1      53.694 154.214  27.505  0.00  0.00    +0.121 C 
ATOM      2  C   UNL     1      54.736 153.591  28.392  0.00  0.00    -0.015 C 
ATOM      3  C   UNL     1      54.215 152.862  29.559  0.00  0.00    -0.025 C 
ATOM      4  C   UNL     1      52.727 152.883  29.734  0.00  0.00    +0.052 C 
ATOM      5  C   UNL     1      52.224 154.280  29.450  0.00  0.00    -0.018 C 
ATOM      6  C   UNL     1      52.751 154.951  28.372  0.00  0.00    +0.022 C 
ATOM      7  C   UNL     1      52.368 156.257  28.106  0.00  0.00    +0.133 C 
ATOM      8  C   UNL     1      51.434 156.883  28.950  0.00  0.00    +0.075 C 
ATOM      9  C   UNL     1      50.901 156.212  30.031  0.00  0.00    +0.045 C 
ATOM     10  C   UNL     1      51.317 154.893  30.265  0.00  0.00    -0.001 C 
ATOM     11  C   UNL     1      49.926 156.823  30.937  0.00  0.00    +0.199 C 
ATOM     12  O   UNL     1      49.478 156.165  31.902  0.00  0.00    -0.286 OA
ATOM     13  C   UNL     1      49.495 158.193  30.693  0.00  0.00    +0.079 C 
ATOM     14  C   UNL     1      49.990 158.907  29.633  0.00  0.00    +0.079 C 
ATOM     15  C   UNL     1      49.590 160.222  29.383  0.00  0.00    +0.137 C 
ATOM     16  C   UNL     1      48.685 160.817  30.206  0.00  0.00    +0.040 C 
ATOM     17  C   UNL     1      48.168 160.123  31.281  0.00  0.00    +0.040 C 
ATOM     18  C   UNL     1      48.578 158.831  31.506  0.00  0.00    +0.137 C 
ATOM     19  C   UNL     1      50.969 158.247  28.753  0.00  0.00    +0.202 C 
ATOM     20  O   UNL     1      51.394 158.930  27.804  0.00  0.00    -0.286 OA
ENDROOT
BRANCH   1  24
ATOM     21  N   UNL     1      51.243 152.357  25.376  0.00  0.00    -0.280 N 
ATOM     22  C   UNL     1      51.766 153.310  26.179  0.00  0.00    +0.247 C 
ATOM     23  O   UNL     1      51.073 154.293  26.468  0.00  0.00    -0.270 OA
ATOM     24  C   UNL     1      53.050 153.190  26.669  0.00  0.00    +0.046 C 
ATOM     25  C   UNL     1      53.746 152.068  26.299  0.00  0.00    +0.003 C 
ATOM     26  C   UNL     1      53.199 151.080  25.466  0.00  0.00    +0.016 C 
ATOM     27  C   UNL     1      51.918 151.260  25.013  0.00  0.00    +0.064 C 
ATOM     28  H   UNL     1      50.324 152.475  25.043  0.00  0.00    +0.155 HD
ENDBRANCH   1  24
BRANCH  18  29
ATOM     29  O   UNL     1      48.074 158.097  32.587  0.00  0.00    -0.505 OA
ATOM     30  H   UNL     1      48.361 157.217  32.730  0.00  0.00    +0.292 HD
ENDBRANCH  18  29
BRANCH  15  31
ATOM     31  O   UNL     1      50.132 160.886  28.293  0.00  0.00    -0.505 OA
ATOM     32  H   UNL     1      50.754 160.453  27.742  0.00  0.00    +0.292 HD
ENDBRANCH  15  31
BRANCH   7  33
ATOM     33  O   UNL     1      52.896 156.911  27.046  0.00  0.00    -0.506 OA
ATOM     34  H   UNL     1      53.518 156.481  26.492  0.00  0.00    +0.292 HD
ENDBRANCH   7  33
BRANCH   1  35
ATOM     35  C   UNL     1      54.360 155.164  26.538  0.00  0.00    +0.219 C 
ATOM     36  O   UNL     1      54.170 155.053  25.368  0.00  0.00    -0.287 OA
ENDBRANCH   1  35
TORSDOF 5
