REMARK  Name = =
REMARK  7 active torsions:
REMARK  status: ('A' for Active; 'I' for Inactive)
REMARK    1  A    between atoms: C_1  and  C_24
REMARK    2  A    between atoms: C_1  and  C_31
REMARK    3  A    between atoms: C_7  and  O_30
REMARK    4  A    between atoms: C_15  and  O_29
REMARK    5  A    between atoms: C_18  and  O_28
REMARK    6  A    between atoms: C_31  and  O_33
REMARK    7  A    between atoms: O_33  and  O_34
REMARK                            x       y       z     vdW  Elec       q    Type
REMARK                         _______ _______ _______ _____ _____    ______ ____
ROOT
ATOM      1  C   UNL     1      52.868 155.237  26.741  0.00  0.00    +0.137 C 
ATOM      2  C   UNL     1      51.864 154.653  25.770  0.00  0.00    +0.020 C 
ATOM      3  C   UNL     1      51.026 153.574  26.408  0.00  0.00    +0.006 C 
ATOM      4  C   UNL     1      50.372 154.028  27.679  0.00  0.00    +0.026 C 
ATOM      5  C   UNL     1      50.876 155.327  28.169  0.00  0.00    -0.022 C 
ATOM      6  C   UNL     1      52.033 155.945  27.776  0.00  0.00    +0.021 C 
ATOM      7  C   UNL     1      52.467 157.176  28.280  0.00  0.00    +0.133 C 
ATOM      8  C   UNL     1      51.676 157.793  29.224  0.00  0.00    +0.075 C 
ATOM      9  C   UNL     1      50.508 157.181  29.627  0.00  0.00    +0.045 C 
ATOM     10  C   UNL     1      50.100 155.965  29.116  0.00  0.00    -0.001 C 
ATOM     11  C   UNL     1      49.689 157.865  30.634  0.00  0.00    +0.199 C 
ATOM     12  O   UNL     1      48.635 157.295  30.986  0.00  0.00    -0.286 OA
ATOM     13  C   UNL     1      50.095 159.158  31.197  0.00  0.00    +0.079 C 
ATOM     14  C   UNL     1      51.268 159.772  30.792  0.00  0.00    +0.079 C 
ATOM     15  C   UNL     1      51.684 160.986  31.296  0.00  0.00    +0.137 C 
ATOM     16  C   UNL     1      50.926 161.634  32.237  0.00  0.00    +0.040 C 
ATOM     17  C   UNL     1      49.759 161.043  32.653  0.00  0.00    +0.040 C 
ATOM     18  C   UNL     1      49.333 159.804  32.140  0.00  0.00    +0.137 C 
ATOM     19  C   UNL     1      52.081 159.087  29.788  0.00  0.00    +0.202 C 
ATOM     20  O   UNL     1      53.136 159.664  29.440  0.00  0.00    -0.286 OA
ENDROOT
BRANCH   1  24
ATOM     21  N   UNL     1      55.247 152.433  27.467  0.00  0.00    -0.280 N 
ATOM     22  C   UNL     1      54.523 153.357  26.783  0.00  0.00    +0.246 C 
ATOM     23  O   UNL     1      54.637 153.420  25.551  0.00  0.00    -0.270 OA
ATOM     24  C   UNL     1      53.667 154.227  27.430  0.00  0.00    +0.045 C 
ATOM     25  C   UNL     1      53.583 154.109  28.797  0.00  0.00    +0.002 C 
ATOM     26  C   UNL     1      54.336 153.150  29.484  0.00  0.00    +0.016 C 
ATOM     27  C   UNL     1      55.172 152.311  28.804  0.00  0.00    +0.064 C 
ATOM     28  H   UNL     1      55.846 151.833  26.967  0.00  0.00    +0.155 HD
ENDBRANCH   1  24
BRANCH  18  29
ATOM     29  O   UNL     1      48.175 159.294  32.602  0.00  0.00    -0.505 OA
ATOM     30  H   UNL     1      47.864 158.471  32.280  0.00  0.00    +0.292 HD
ENDBRANCH  18  29
BRANCH  15  31
ATOM     31  O   UNL     1      52.871 161.580  30.868  0.00  0.00    -0.505 OA
ATOM     32  H   UNL     1      53.403 161.153  30.226  0.00  0.00    +0.292 HD
ENDBRANCH  15  31
BRANCH   7  33
ATOM     33  O   UNL     1      53.640 157.651  27.786  0.00  0.00    -0.506 OA
ATOM     34  H   UNL     1      54.111 157.159  27.143  0.00  0.00    +0.292 HD
ENDBRANCH   7  33
BRANCH   1  35
ATOM     35  C   UNL     1      53.747 156.150  26.025  0.00  0.00    +0.358 C 
ATOM     36  O   UNL     1      54.453 156.979  26.635  0.00  0.00    -0.246 OA
BRANCH  35  37
ATOM     37  O   UNL     1      53.819 156.115  24.647  0.00  0.00    -0.298 OA
BRANCH  37  38
ATOM     38  O   UNL     1      54.906 156.460  23.954  0.00  0.00    -0.198 OA
ATOM     39  H   UNL     1      54.731 156.358  23.005  0.00  0.00    +0.268 HD
ENDBRANCH  37  38
ENDBRANCH  35  37
ENDBRANCH   1  35
TORSDOF 7
