REMARK  Name = =
REMARK  5 active torsions:
REMARK  status: ('A' for Active; 'I' for Inactive)
REMARK    1  A    between atoms: C_1  and  C_8
REMARK    2  A    between atoms: C_1  and  C_26
REMARK    3  A    between atoms: C_26  and  N_33
REMARK    4  A    between atoms: N_33  and  C_34
REMARK    5  A    between atoms: C_34  and  C_46
REMARK                            x       y       z     vdW  Elec       q    Type
REMARK                         _______ _______ _______ _____ _____    ______ ____
ROOT
ATOM      1  C   UNL     1     -13.352 -43.489  30.546  0.00  0.00    +0.052 C 
ATOM      2  C   UNL     1     -12.932 -42.349  31.413  0.00  0.00    +0.018 C 
ATOM      3  C   UNL     1     -14.137 -41.897  32.260  0.00  0.00    +0.070 C 
ATOM      4  C   UNL     1     -14.321 -42.990  33.248  0.00  0.00    +0.173 C 
ATOM      5  O   UNL     1     -14.434 -42.770  34.470  0.00  0.00    -0.291 OA
ATOM      6  C   UNL     1     -14.359 -44.329  32.686  0.00  0.00    +0.033 C 
ATOM      7  C   UNL     1     -13.911 -44.505  31.463  0.00  0.00    -0.018 C 
ENDROOT
BRANCH   1   8
ATOM      8  C   UNL     1     -14.505 -43.073  29.679  0.00  0.00    -0.018 C 
ATOM      9  C   UNL     1     -14.266 -42.366  28.493  0.00  0.00    -0.008 C 
ATOM     10  C   UNL     1     -15.297 -41.953  27.690  0.00  0.00    -0.022 C 
ATOM     11  C   UNL     1     -16.614 -42.217  28.016  0.00  0.00    -0.021 C 
ATOM     12  C   UNL     1     -16.878 -42.908  29.174  0.00  0.00    -0.005 C 
ATOM     13  C   UNL     1     -15.821 -43.327  29.990  0.00  0.00    -0.004 C 
ATOM     14  C   UNL     1     -17.712 -41.752  27.089  0.00  0.00    +0.052 C 
ATOM     15  C   UNL     1     -17.187 -42.010  25.685  0.00  0.00    -0.026 C 
ATOM     16  C   UNL     1     -15.925 -41.757  25.381  0.00  0.00    -0.022 C 
ATOM     17  C   UNL     1     -15.381 -41.992  24.047  0.00  0.00    -0.005 C 
ATOM     18  C   UNL     1     -16.167 -42.469  23.115  0.00  0.00    -0.005 C 
ATOM     19  C   UNL     1     -17.571 -42.779  23.354  0.00  0.00    -0.026 C 
ATOM     20  C   UNL     1     -18.091 -42.553  24.676  0.00  0.00    -0.030 C 
ATOM     21  C   UNL     1     -19.525 -42.207  24.814  0.00  0.00    +0.026 C 
ATOM     22  C   UNL     1     -20.335 -42.690  23.604  0.00  0.00    +0.005 C 
ATOM     23  C   UNL     1     -19.776 -41.965  22.421  0.00  0.00    +0.005 C 
ATOM     24  C   UNL     1     -18.379 -42.407  22.168  0.00  0.00    +0.026 C 
ATOM     25  C   UNL     1     -15.039 -41.210  26.448  0.00  0.00    +0.052 C 
ENDBRANCH   1   8
BRANCH   1  26
ATOM     26  C   UNL     1     -12.244 -44.070  29.678  0.00  0.00    +0.079 C 
ATOM     27  C   UNL     1     -12.479 -44.488  28.334  0.00  0.00    +0.073 C 
ATOM     28  N   UNL     1     -11.984 -45.875  28.538  0.00  0.00    -0.272 NA
ATOM     29  C   UNL     1     -11.962 -46.325  27.191  0.00  0.00    +0.072 C 
ATOM     30  C   UNL     1     -12.948 -45.740  26.500  0.00  0.00    +0.019 C 
ATOM     31  C   UNL     1     -13.629 -44.853  27.552  0.00  0.00    +0.019 C 
ATOM     32  C   UNL     1     -11.966 -45.530  29.942  0.00  0.00    +0.089 C 
BRANCH  26  33
ATOM     33  N   UNL     1     -11.101 -43.245  29.802  0.00  0.00    -0.267 NA
ATOM     34  H   UNL     1     -11.456 -42.294  29.701  0.00  0.00    +0.126 HD
BRANCH  33  35
ATOM     35  C   UNL     1     -10.212 -43.178  30.862  0.00  0.00    +0.227 C 
ATOM     36  O   UNL     1     -10.234 -44.284  31.713  0.00  0.00    -0.325 OA
ATOM     37  C   UNL     1      -9.674 -45.435  31.262  0.00  0.00    +0.213 C 
ATOM     38  C   UNL     1      -8.945 -45.323  29.971  0.00  0.00    +0.203 C 
ATOM     39  O   UNL     1      -8.931 -46.214  29.101  0.00  0.00    -0.289 OA
ATOM     40  C   UNL     1      -8.231 -44.059  29.800  0.00  0.00    +0.040 C 
ATOM     41  C   UNL     1      -8.846 -42.991  30.237  0.00  0.00    +0.028 C 
BRANCH  35  47
ATOM     42  N   UNL     1      -9.621 -41.818  32.899  0.00  0.00    -0.276 N 
ATOM     43  C   UNL     1      -8.615 -42.624  33.551  0.00  0.00    +0.094 C 
ATOM     44  C   UNL     1      -9.253 -42.748  34.947  0.00  0.00    +0.023 C 
ATOM     45  C   UNL     1      -9.969 -41.405  35.137  0.00  0.00    +0.023 C 
ATOM     46  C   UNL     1      -9.731 -40.657  33.830  0.00  0.00    +0.094 C 
ATOM     47  C   UNL     1     -10.357 -41.990  31.721  0.00  0.00    +0.269 C 
ATOM     48  O   UNL     1     -11.163 -41.085  31.406  0.00  0.00    -0.270 OA
ENDBRANCH  35  47
ENDBRANCH  33  35
ENDBRANCH  26  33
ENDBRANCH   1  26
TORSDOF 5
