REMARK  Name = =
REMARK  6 active torsions:
REMARK  status: ('A' for Active; 'I' for Inactive)
REMARK    1  A    between atoms: C_2  and  N_10
REMARK    2  A    between atoms: C_9  and  C_18
REMARK    3  A    between atoms: N_10  and  N_16
REMARK    4  A    between atoms: C_11  and  C_13
REMARK    5  A    between atoms: N_16  and  O_17
REMARK    6  A    between atoms: C_18  and  O_20
REMARK                            x       y       z     vdW  Elec       q    Type
REMARK                         _______ _______ _______ _____ _____    ______ ____
ROOT
ATOM      1  N   UNL     1      -9.300 -43.397  30.343  0.00  0.00    -0.231 N 
ATOM      2  C   UNL     1     -10.515 -44.120  30.078  0.00  0.00    +0.194 C 
ATOM      3  C   UNL     1     -10.428 -43.545  28.685  0.00  0.00    +0.136 C 
ATOM      4  C   UNL     1      -9.710 -42.447  29.394  0.00  0.00    +0.236 C 
ATOM      5  O   UNL     1      -9.571 -41.204  29.177  0.00  0.00    -0.274 OA
ATOM      6  S   UNL     1     -10.277 -45.901  30.105  0.00  0.00    -0.098 S 
ATOM      7  C   UNL     1      -8.758 -46.276  30.970  0.00  0.00    +0.088 C 
ATOM      8  C   UNL     1      -8.121 -45.082  31.519  0.00  0.00    +0.007 C 
ATOM      9  C   UNL     1      -8.330 -43.816  31.272  0.00  0.00    +0.128 C 
ENDROOT
BRANCH   2  10
ATOM     10  N   UNL     1     -11.711 -43.655  30.739  0.00  0.00    -0.152 N 
ATOM     11  C   UNL     1     -12.978 -44.154  30.374  0.00  0.00    +0.320 C 
ATOM     12  O   UNL     1     -13.037 -45.016  29.437  0.00  0.00    -0.263 OA
BRANCH  11  13
ATOM     13  C   UNL     1     -14.216 -43.748  31.001  0.00  0.00    +0.298 C 
ATOM     14  O   UNL     1     -14.413 -43.668  32.233  0.00  0.00    -0.265 OA
ATOM     15  N   UNL     1     -15.337 -43.401  30.165  0.00  0.00    -0.322 N 
ATOM     16  H   UNL     1     -15.252 -43.442  29.185  0.00  0.00    +0.145 HD
ATOM     17  H   UNL     1     -16.188 -43.123  30.574  0.00  0.00    +0.145 HD
ENDBRANCH  11  13
BRANCH  10  18
ATOM     18  N   UNL     1     -11.601 -42.713  31.744  0.00  0.00    +0.017 NA
BRANCH  18  19
ATOM     19  O   UNL     1     -12.059 -41.527  31.287  0.00  0.00    -0.278 OA
ATOM     20  H   UNL     1     -11.985 -40.860  31.988  0.00  0.00    +0.240 HD
ENDBRANCH  18  19
ENDBRANCH  10  18
ENDBRANCH   2  10
BRANCH   9  21
ATOM     21  C   UNL     1      -7.522 -42.822  31.980  0.00  0.00    +0.352 C 
ATOM     22  O   UNL     1      -7.975 -42.300  33.024  0.00  0.00    -0.244 OA
BRANCH  21  23
ATOM     23  O   UNL     1      -6.267 -42.410  31.575  0.00  0.00    -0.476 OA
ATOM     24  H   UNL     1      -5.883 -42.770  30.800  0.00  0.00    +0.295 HD
ENDBRANCH  21  23
ENDBRANCH   9  21
TORSDOF 6
