REMARK  Name = =
REMARK  1 active torsions:
REMARK  status: ('A' for Active; 'I' for Inactive)
REMARK    1  A    between atoms: C_1  and  C_8
REMARK                            x       y       z     vdW  Elec       q    Type
REMARK                         _______ _______ _______ _____ _____    ______ ____
ROOT
ATOM      1  C   UNL     1      -6.754  -2.419  32.178  0.00  0.00    +0.088 C 
ATOM      2  C   UNL     1      -7.610  -1.762  31.208  0.00  0.00    +0.013 C 
ATOM      3  C   UNL     1      -8.947  -1.865  31.645  0.00  0.00    +0.021 C 
ATOM      4  C   UNL     1      -9.399  -2.423  32.702  0.00  0.00    +0.099 C 
ATOM      5  N   UNL     1      -8.556  -3.066  33.646  0.00  0.00    -0.242 NA
ATOM      6  C   UNL     1      -7.208  -2.967  33.220  0.00  0.00    +0.109 C 
ENDROOT
BRANCH   1   8
ATOM      7  N   UNL     1      -4.099  -2.415  31.612  0.00  0.00    -0.191 NA
ATOM      8  C   UNL     1      -5.308  -2.408  31.862  0.00  0.00    +0.102 C 
ENDBRANCH   1   8
TORSDOF 1
