REMARK  Name = =
REMARK  6 active torsions:
REMARK  status: ('A' for Active; 'I' for Inactive)
REMARK    1  A    between atoms: C_1  and  O_2
REMARK    2  A    between atoms: C_1  and  C_3
REMARK    3  A    between atoms: C_1  and  C_12
REMARK    4  A    between atoms: C_3  and  C_9
REMARK    5  A    between atoms: C_4  and  C_11
REMARK    6  A    between atoms: C_12  and  N_13
REMARK                            x       y       z     vdW  Elec       q    Type
REMARK                         _______ _______ _______ _____ _____    ______ ____
ROOT
ATOM      1  C   UNL     1      -4.833  -1.472  29.949  0.00  0.00    +0.132 C 
ENDROOT
BRANCH   1   2
ATOM      2  O   UNL     1      -3.639  -1.242  29.276  0.00  0.00    -0.383 OA
ATOM      3  H   UNL     1      -3.642  -1.728  28.436  0.00  0.00    +0.210 HD
ENDBRANCH   1   2
BRANCH   1   4
ATOM      4  C   UNL     1      -4.982  -2.964  30.120  0.00  0.00    +0.077 C 
BRANCH   4  10
ATOM      5  C   UNL     1      -3.709  -3.729  32.092  0.00  0.00    +0.082 C 
ATOM      6  C   UNL     1      -2.604  -4.338  32.640  0.00  0.00    +0.013 C 
ATOM      7  C   UNL     1      -1.617  -4.812  31.812  0.00  0.00    +0.021 C 
ATOM      8  C   UNL     1      -1.742  -4.676  30.447  0.00  0.00    +0.098 C 
ATOM      9  N   UNL     1      -2.832  -4.079  29.961  0.00  0.00    -0.247 NA
ATOM     10  C   UNL     1      -3.820  -3.601  30.724  0.00  0.00    +0.071 C 
BRANCH   5  12
ATOM     11  N   UNL     1      -5.578  -2.834  33.666  0.00  0.00    -0.191 NA
ATOM     12  C   UNL     1      -4.751  -3.231  32.979  0.00  0.00    +0.102 C 
ENDBRANCH   5  12
ENDBRANCH   4  10
ENDBRANCH   1   4
BRANCH   1  13
ATOM     13  C   UNL     1      -4.856  -0.726  31.264  0.00  0.00    +0.102 C 
BRANCH  13  14
ATOM     14  N   UNL     1      -6.103  -0.051  31.397  0.00  0.00    -0.266 NA
ATOM     15  C   UNL     1      -6.139   1.026  32.349  0.00  0.00    +0.105 C 
ATOM     16  C   UNL     1      -7.522   1.136  32.963  0.00  0.00    +0.159 C 
ATOM     17  O   UNL     1      -8.550   1.037  32.064  0.00  0.00    -0.351 OA
ATOM     18  C   UNL     1      -8.461  -0.017  31.171  0.00  0.00    +0.159 C 
ATOM     19  C   UNL     1      -7.264  -0.905  31.479  0.00  0.00    +0.105 C 
ENDBRANCH  13  14
ENDBRANCH   1  13
TORSDOF 6
