REMARK  Name = =
REMARK  8 active torsions:
REMARK  status: ('A' for Active; 'I' for Inactive)
REMARK    1  A    between atoms: C_1  and  C_8
REMARK    2  A    between atoms: C_4  and  O_9
REMARK    3  A    between atoms: C_6  and  C_16
REMARK    4  A    between atoms: O_9  and  C_10
REMARK    5  A    between atoms: C_16  and  C_17
REMARK    6  A    between atoms: C_17  and  O_18
REMARK    7  A    between atoms: C_17  and  C_19
REMARK    8  A    between atoms: C_19  and  N_20
REMARK                            x       y       z     vdW  Elec       q    Type
REMARK                         _______ _______ _______ _____ _____    ______ ____
ROOT
ATOM      1  C   UNL     1      -2.644  -2.004  29.869  0.00  0.00    +0.082 C 
ATOM      2  C   UNL     1      -1.345  -2.514  30.022  0.00  0.00    +0.016 C 
ATOM      3  C   UNL     1      -1.184  -3.755  30.584  0.00  0.00    +0.058 C 
ATOM      4  C   UNL     1      -2.259  -4.511  31.000  0.00  0.00    +0.225 C 
ATOM      5  N   UNL     1      -3.463  -3.965  30.827  0.00  0.00    -0.215 NA
ATOM      6  C   UNL     1      -3.687  -2.741  30.278  0.00  0.00    +0.074 C 
ENDROOT
BRANCH   1   8
ATOM      7  N   UNL     1      -2.920   0.281  28.627  0.00  0.00    -0.191 NA
ATOM      8  C   UNL     1      -2.785  -0.735  29.179  0.00  0.00    +0.102 C 
ENDBRANCH   1   8
BRANCH   4   9
ATOM      9  O   UNL     1      -2.032  -5.748  31.551  0.00  0.00    -0.460 OA
BRANCH   9  10
ATOM     10  C   UNL     1      -2.982  -6.611  32.097  0.00  0.00    +0.214 C 
ATOM     11  C   UNL     1      -2.397  -7.395  33.243  0.00  0.00    +0.196 C 
ATOM     12  S   UNL     1      -2.121  -8.817  32.205  0.00  0.00    -0.003 S 
ATOM     13  O   UNL     1      -0.706  -8.962  31.718  0.00  0.00    -0.173 OA
ATOM     14  O   UNL     1      -2.718 -10.092  32.695  0.00  0.00    -0.173 OA
ATOM     15  C   UNL     1      -3.153  -7.825  31.166  0.00  0.00    +0.196 C 
ENDBRANCH   9  10
ENDBRANCH   4   9
BRANCH   6  16
ATOM     16  C   UNL     1      -5.072  -2.285  30.280  0.00  0.00    +0.077 C 
BRANCH  16  17
ATOM     17  C   UNL     1      -5.694  -1.862  31.527  0.00  0.00    +0.132 C 
BRANCH  17  18
ATOM     18  O   UNL     1      -7.049  -2.248  31.597  0.00  0.00    -0.383 OA
ATOM     19  H   UNL     1      -7.174  -3.078  31.110  0.00  0.00    +0.210 HD
ENDBRANCH  17  18
BRANCH  17  20
ATOM     20  C   UNL     1      -5.449  -0.621  32.242  0.00  0.00    +0.102 C 
BRANCH  20  21
ATOM     21  N   UNL     1      -6.310   0.420  31.937  0.00  0.00    -0.266 NA
ATOM     22  C   UNL     1      -6.000   1.532  31.184  0.00  0.00    +0.105 C 
ATOM     23  C   UNL     1      -7.228   2.417  31.023  0.00  0.00    +0.159 C 
ATOM     24  O   UNL     1      -8.359   1.689  30.712  0.00  0.00    -0.351 OA
ATOM     25  C   UNL     1      -8.643   0.669  31.586  0.00  0.00    +0.159 C 
ATOM     26  C   UNL     1      -7.571   0.446  32.630  0.00  0.00    +0.105 C 
ENDBRANCH  20  21
ENDBRANCH  17  20
ENDBRANCH  16  17
ENDBRANCH   6  16
TORSDOF 8
