REMARK  Name = =
REMARK  10 active torsions:
REMARK  status: ('A' for Active; 'I' for Inactive)
REMARK    1  A    between atoms: C_1  and  C_8
REMARK    2  A    between atoms: C_4  and  O_9
REMARK    3  A    between atoms: C_6  and  C_24
REMARK    4  A    between atoms: O_9  and  C_10
REMARK    5  A    between atoms: C_10  and  C_16
REMARK    6  A    between atoms: C_16  and  P_17
REMARK    7  A    between atoms: C_24  and  C_25
REMARK    8  A    between atoms: C_25  and  O_26
REMARK    9  A    between atoms: C_25  and  C_27
REMARK   10  A    between atoms: C_27  and  N_28
REMARK                            x       y       z     vdW  Elec       q    Type
REMARK                         _______ _______ _______ _____ _____    ______ ____
ROOT
ATOM      1  C   UNL     1      -2.740  -2.655  30.357  0.00  0.00    +0.082 C 
ATOM      2  C   UNL     1      -1.368  -2.811  30.280  0.00  0.00    +0.016 C 
ATOM      3  C   UNL     1      -0.810  -4.001  30.643  0.00  0.00    +0.058 C 
ATOM      4  C   UNL     1      -1.583  -5.050  31.085  0.00  0.00    +0.224 C 
ATOM      5  N   UNL     1      -2.905  -4.859  31.147  0.00  0.00    -0.215 NA
ATOM      6  C   UNL     1      -3.504  -3.688  30.796  0.00  0.00    +0.074 C 
ENDROOT
BRANCH   1   8
ATOM      7  N   UNL     1      -3.755  -0.418  29.498  0.00  0.00    -0.191 NA
ATOM      8  C   UNL     1      -3.305  -1.414  29.869  0.00  0.00    +0.102 C 
ENDBRANCH   1   8
BRANCH   4   9
ATOM      9  O   UNL     1      -1.031  -6.294  31.460  0.00  0.00    -0.463 OA
BRANCH   9  10
ATOM     10  C   UNL     1      -1.043  -7.431  30.646  0.00  0.00    +0.185 C 
ATOM     11  C   UNL     1      -2.119  -7.400  29.608  0.00  0.00    +0.193 C 
ATOM     12  S   UNL     1      -3.154  -8.525  30.536  0.00  0.00    -0.003 S 
ATOM     13  O   UNL     1      -3.465  -9.792  29.783  0.00  0.00    -0.173 OA
ATOM     14  O   UNL     1      -4.310  -7.900  31.220  0.00  0.00    -0.173 OA
ATOM     15  C   UNL     1      -1.665  -8.585  31.463  0.00  0.00    +0.193 C 
BRANCH  10  16
ATOM     16  C   UNL     1       0.318  -7.901  30.186  0.00  0.00    +0.104 C 
BRANCH  16  17
ATOM     17  P   UNL     1       1.102  -6.834  28.978  0.00  0.00    +0.120 P 
ATOM     18  O   UNL     1       1.534  -5.510  29.624  0.00  0.00    -0.319 OA
ATOM     19  C   UNL     1       0.085  -6.508  27.524  0.00  0.00    +0.077 C 
ATOM     20  C   UNL     1       0.182  -7.687  26.599  0.00  0.00    +0.076 C 
ATOM     21  N   UNL     1       0.905  -8.789  27.069  0.00  0.00    -0.297 NA
ATOM     22  C   UNL     1       2.267  -8.665  27.383  0.00  0.00    +0.076 C 
ATOM     23  C   UNL     1       2.620  -7.633  28.395  0.00  0.00    +0.077 C 
ATOM     24  H   UNL     1       0.835  -9.512  26.353  0.00  0.00    +0.123 HD
ENDBRANCH  16  17
ENDBRANCH  10  16
ENDBRANCH   9  10
ENDBRANCH   4   9
BRANCH   6  25
ATOM     25  C   UNL     1      -4.968  -3.578  30.985  0.00  0.00    +0.077 C 
BRANCH  25  26
ATOM     26  C   UNL     1      -5.408  -2.927  32.247  0.00  0.00    +0.132 C 
BRANCH  26  27
ATOM     27  O   UNL     1      -4.388  -3.087  33.232  0.00  0.00    -0.383 OA
ATOM     28  H   UNL     1      -4.072  -4.004  33.224  0.00  0.00    +0.210 HD
ENDBRANCH  26  27
BRANCH  26  29
ATOM     29  C   UNL     1      -5.897  -1.550  32.245  0.00  0.00    +0.102 C 
BRANCH  29  30
ATOM     30  N   UNL     1      -6.759  -1.152  31.179  0.00  0.00    -0.266 NA
ATOM     31  C   UNL     1      -8.068  -1.779  31.253  0.00  0.00    +0.105 C 
ATOM     32  C   UNL     1      -9.143  -0.773  31.643  0.00  0.00    +0.159 C 
ATOM     33  O   UNL     1      -8.658  -0.130  32.805  0.00  0.00    -0.351 OA
ATOM     34  C   UNL     1      -7.713   0.793  32.359  0.00  0.00    +0.159 C 
ATOM     35  C   UNL     1      -6.905   0.299  31.205  0.00  0.00    +0.105 C 
ENDBRANCH  29  30
ENDBRANCH  26  29
ENDBRANCH  25  26
ENDBRANCH   6  25
TORSDOF 10
