REMARK  Name = =
REMARK  8 active torsions:
REMARK  status: ('A' for Active; 'I' for Inactive)
REMARK    1  A    between atoms: C_3  and  O_13
REMARK    2  A    between atoms: C_5  and  P_8
REMARK    3  A    between atoms: P_8  and  O_9
REMARK    4  A    between atoms: P_8  and  O_11
REMARK    5  A    between atoms: O_9  and  O_10
REMARK    6  A    between atoms: O_13  and  C_14
REMARK    7  A    between atoms: C_16  and  O_21
REMARK    8  A    between atoms: C_17  and  O_20
REMARK                            x       y       z     vdW  Elec       q    Type
REMARK                         _______ _______ _______ _____ _____    ______ ____
ROOT
ATOM      1 CL   UNL     1     -12.765 -46.038  32.000  0.00  0.00    -0.079 Cl
ATOM      2  C   UNL     1     -11.596 -44.983  31.248  0.00  0.00    +0.092 C 
ATOM      3  C   UNL     1     -11.916 -43.675  30.991  0.00  0.00    +0.156 C 
ATOM      4  C   UNL     1     -11.009 -42.841  30.387  0.00  0.00    +0.042 C 
ATOM      5  C   UNL     1      -9.779 -43.348  30.048  0.00  0.00    +0.041 C 
ATOM      6  C   UNL     1      -9.469 -44.654  30.309  0.00  0.00    +0.005 C 
ATOM      7  C   UNL     1     -10.347 -45.498  30.905  0.00  0.00    +0.015 C 
ENDROOT
BRANCH   5   8
ATOM      8  P   UNL     1      -8.613 -42.270  29.265  0.00  0.00    +0.156 P 
ATOM      9  H   UNL     1      -7.582 -42.565  30.134  0.00  0.00    +0.118 HD
BRANCH   8  10
ATOM     10  O   UNL     1      -9.570 -41.134  28.561  0.00  0.00    -0.352 OA
ATOM     11  H   UNL     1     -10.197 -41.567  27.960  0.00  0.00    +0.217 HD
ENDBRANCH   8  10
BRANCH   8  12
ATOM     12  O   UNL     1      -8.440 -41.902  27.792  0.00  0.00    -0.193 OA
BRANCH  12  13
ATOM     13  O   UNL     1      -7.859 -43.286  28.107  0.00  0.00    -0.245 OA
ATOM     14  H   UNL     1      -7.486 -43.672  27.299  0.00  0.00    +0.253 HD
ENDBRANCH  12  13
ENDBRANCH   8  12
ENDBRANCH   5   8
BRANCH   3  15
ATOM     15  O   UNL     1     -13.140 -43.153  31.321  0.00  0.00    -0.453 OA
BRANCH  15  16
ATOM     16  C   UNL     1     -13.441 -42.444  32.464  0.00  0.00    +0.149 C 
ATOM     17  C   UNL     1     -12.466 -41.853  33.230  0.00  0.00    +0.077 C 
ATOM     18  C   UNL     1     -12.766 -41.139  34.384  0.00  0.00    +0.171 C 
ATOM     19  C   UNL     1     -14.088 -41.027  34.764  0.00  0.00    +0.168 C 
ATOM     20  C   UNL     1     -15.089 -41.606  34.018  0.00  0.00    +0.043 C 
ATOM     21  C   UNL     1     -14.752 -42.317  32.865  0.00  0.00    +0.041 C 
BRANCH  19  22
ATOM     22  O   UNL     1     -14.390 -40.308  35.926  0.00  0.00    -0.503 OA
ATOM     23  H   UNL     1     -13.702 -39.917  36.427  0.00  0.00    +0.292 HD
ENDBRANCH  19  22
BRANCH  18  24
ATOM     24  O   UNL     1     -11.769 -40.548  35.147  0.00  0.00    -0.503 OA
ATOM     25  H   UNL     1     -10.872 -40.625  34.887  0.00  0.00    +0.292 HD
ENDBRANCH  18  24
ENDBRANCH  15  16
ENDBRANCH   3  15
TORSDOF 8
REMARK  Name = =
REMARK  8 active torsions:
REMARK  status: ('A' for Active; 'I' for Inactive)
REMARK    1  A    between atoms: C_3  and  O_13
REMARK    2  A    between atoms: C_5  and  P_8
REMARK    3  A    between atoms: P_8  and  O_9
REMARK    4  A    between atoms: P_8  and  O_11
REMARK    5  A    between atoms: O_9  and  O_10
REMARK    6  A    between atoms: O_13  and  C_14
REMARK    7  A    between atoms: C_16  and  O_21
REMARK    8  A    between atoms: C_17  and  O_20
REMARK                            x       y       z     vdW  Elec       q    Type
REMARK                         _______ _______ _______ _____ _____    ______ ____
ROOT
ATOM      1  O   HOH     1      -7.290 -41.740  30.118  0.00  0.00    -0.253 OA
ATOM      2  H   HOH     0      -6.320 -41.740  30.118  0.00  0.00    +0.253 HD
ENDROOT
TORSDOF 0
