MODEL 1
REMARK VINA RESULT:    -9.435      0.000      0.000
REMARK INTER + INTRA:         -18.404
REMARK INTER:                 -15.502
REMARK INTRA:                  -2.902
REMARK UNBOUND:                -2.902
REMARK  Name = =
REMARK  12 active torsions:
REMARK  status: ('A' for Active; 'I' for Inactive)
REMARK    1  A    between atoms: S_1  and  N_4
REMARK    2  A    between atoms: S_1  and  N_24
REMARK    3  A    between atoms: N_4  and  C_5
REMARK    4  A    between atoms: C_8  and  N_11
REMARK    5  A    between atoms: C_12  and  C_14
REMARK    6  A    between atoms: C_15  and  O_23
REMARK    7  A    between atoms: C_16  and  N_20
REMARK    8  A    between atoms: N_24  and  N_27
REMARK    9  A    between atoms: N_24  and  S_30
REMARK   10  A    between atoms: N_27  and  N_28
REMARK   11  A    between atoms: N_28  and  O_29
REMARK   12  A    between atoms: S_30  and  C_33
REMARK                            x       y       z     vdW  Elec       q    Type
REMARK                         _______ _______ _______ _____ _____    ______ ____
ROOT
ATOM      1  S   UNL     1       2.925  -2.714  25.077  0.00  0.00    +0.148 S 
ATOM      2  O   UNL     1       4.283  -3.286  25.411  0.00  0.00    -0.135 OA
ATOM      3  O   UNL     1       1.889  -3.790  25.053  0.00  0.00    -0.135 OA
ENDROOT
BRANCH   1   4
ATOM      4  N   UNL     1       2.526  -1.472  26.228  0.00  0.00    -0.203 N 
ATOM      5  H   UNL     1       2.953  -0.586  26.185  0.00  0.00    +0.175 HD
BRANCH   4   6
ATOM      6  C   UNL     1       1.574  -1.769  27.225  0.00  0.00    +0.066 C 
ATOM      7  C   UNL     1       0.293  -1.266  27.211  0.00  0.00    +0.017 C 
ATOM      8  C   UNL     1      -0.669  -1.591  28.180  0.00  0.00    +0.016 C 
ATOM      9  C   UNL     1      -0.302  -2.441  29.171  0.00  0.00    +0.051 C 
ATOM     10  C   UNL     1       1.004  -2.951  29.185  0.00  0.00    +0.016 C 
ATOM     11  C   UNL     1       1.936  -2.630  28.237  0.00  0.00    +0.017 C 
BRANCH   9  12
ATOM     12  N   UNL     1      -1.198  -2.868  30.194  0.00  0.00    -0.280 N 
ATOM     13  C   UNL     1      -2.108  -3.923  30.097  0.00  0.00    +0.252 C 
ATOM     14  O   UNL     1      -2.168  -4.561  28.965  0.00  0.00    -0.270 OA
ATOM     15  H   UNL     1      -1.172  -2.376  31.045  0.00  0.00    +0.155 HD
BRANCH  13  16
ATOM     16  C   UNL     1      -2.976  -4.354  31.163  0.00  0.00    +0.089 C 
ATOM     17  C   UNL     1      -3.701  -3.538  31.994  0.00  0.00    +0.151 C 
ATOM     18  C   UNL     1      -4.466  -4.066  33.071  0.00  0.00    +0.085 C 
ATOM     19  C   UNL     1      -4.484  -5.410  33.284  0.00  0.00    +0.018 C 
ATOM     20  C   UNL     1      -3.749  -6.255  32.439  0.00  0.00    +0.002 C 
ATOM     21  C   UNL     1      -3.023  -5.728  31.416  0.00  0.00    +0.008 C 
BRANCH  18  22
ATOM     22  N   UNL     1      -5.189  -3.164  33.884  0.00  0.00    -0.274 N 
ATOM     23  C   UNL     1      -6.336  -2.465  33.508  0.00  0.00    +0.304 C 
ATOM     24  O   UNL     1      -6.849  -2.573  32.381  0.00  0.00    -0.265 OA
ATOM     25  H   UNL     1      -4.853  -3.015  34.798  0.00  0.00    +0.155 HD
ENDBRANCH  18  22
BRANCH  17  26
ATOM     26  O   UNL     1      -3.704  -2.195  31.787  0.00  0.00    -0.504 OA
ATOM     27  H   UNL     1      -2.932  -1.768  31.471  0.00  0.00    +0.292 HD
ENDBRANCH  17  26
ENDBRANCH  13  16
ENDBRANCH   9  12
ENDBRANCH   4   6
ENDBRANCH   1   4
BRANCH   1  28
ATOM     28  N   UNL     1       3.014  -1.952  23.551  0.00  0.00    +0.079 NA
BRANCH  28  31
ATOM     29  C   UNL     1       5.005  -1.974  22.163  0.00  0.00    +0.337 C 
ATOM     30  O   UNL     1       4.430  -2.756  21.371  0.00  0.00    -0.262 OA
ATOM     31  N   UNL     1       4.319  -1.529  23.308  0.00  0.00    -0.092 N 
BRANCH  31  32
ATOM     32  N   UNL     1       4.955  -0.653  24.209  0.00  0.00    -0.101 NA
ATOM     33  H   UNL     1       4.305  -0.367  24.942  0.00  0.00    +0.179 HD
BRANCH  32  34
ATOM     34  O   UNL     1       5.345   0.416  23.490  0.00  0.00    -0.296 OA
ATOM     35  H   UNL     1       4.716   1.142  23.622  0.00  0.00    +0.238 HD
ENDBRANCH  32  34
ENDBRANCH  31  32
ENDBRANCH  28  31
BRANCH  28  36
ATOM     36  S   UNL     1       1.980  -0.575  23.441  0.00  0.00    +0.117 S 
ATOM     37  O   UNL     1       2.467   0.455  24.436  0.00  0.00    -0.148 OA
ATOM     38  O   UNL     1       0.603  -0.959  23.860  0.00  0.00    -0.148 OA
BRANCH  36  39
ATOM     39  C   UNL     1       2.008   0.135  21.868  0.00  0.00    +0.226 C 
ATOM     40  N   UNL     1       2.263   1.420  21.655  0.00  0.00    -0.223 NA
ATOM     41  C   UNL     1       2.274   1.901  20.413  0.00  0.00    +0.100 C 
ATOM     42  C   UNL     1       2.023   1.088  19.334  0.00  0.00    +0.099 C 
ATOM     43  N   UNL     1       1.763  -0.217  19.550  0.00  0.00    -0.239 NA
ATOM     44  C   UNL     1       1.750  -0.704  20.787  0.00  0.00    +0.138 C 
ATOM     45  C   UNL     1       2.054   1.661  18.074  0.00  0.00    +0.021 C 
ATOM     46  C   UNL     1       2.325   2.995  17.878  0.00  0.00    +0.002 C 
ATOM     47  C   UNL     1       2.573   3.792  18.970  0.00  0.00    +0.002 C 
ATOM     48  C   UNL     1       2.549   3.256  20.224  0.00  0.00    +0.021 C 
ENDBRANCH  36  39
ENDBRANCH  28  36
ENDBRANCH   1  28
TORSDOF 12
ENDMDL
