MODEL 1
REMARK VINA RESULT:   -10.172      0.000      0.000
REMARK INTER + INTRA:         -15.040
REMARK INTER:                 -13.145
REMARK INTRA:                  -1.895
REMARK UNBOUND:                -1.895
REMARK  Name = =
REMARK  5 active torsions:
REMARK  status: ('A' for Active; 'I' for Inactive)
REMARK    1  A    between atoms: N_1  and  C_33
REMARK    2  A    between atoms: C_2  and  C_39
REMARK    3  A    between atoms: C_3  and  C_28
REMARK    4  A    between atoms: C_6  and  C_10
REMARK    5  A    between atoms: N_41  and  S_43
REMARK                            x       y       z     vdW  Elec       q    Type
REMARK                         _______ _______ _______ _____ _____    ______ ____
ROOT
ATOM      1  N   UNL     1       2.003  -5.117  27.282  0.00  0.00    -0.286 N 
ATOM      2  C   UNL     1       1.485  -3.765  27.097  0.00  0.00    +0.087 C 
ATOM      3  C   UNL     1       1.282  -3.227  28.451  0.00  0.00    +0.072 C 
ATOM      4  C   UNL     1       1.225  -4.456  29.330  0.00  0.00    -0.005 C 
ATOM      5  C   UNL     1       1.595  -5.548  28.569  0.00  0.00    +0.048 C 
ATOM      6  C   UNL     1       1.575  -6.816  29.131  0.00  0.00    +0.013 C 
ATOM      7  C   UNL     1       1.196  -6.992  30.443  0.00  0.00    +0.001 C 
ATOM      8  C   UNL     1       0.827  -5.903  31.213  0.00  0.00    -0.000 C 
ATOM      9  C   UNL     1       0.851  -4.656  30.635  0.00  0.00    -0.003 C 
ENDROOT
BRANCH   6  10
ATOM     10  C   UNL     1       1.882  -7.990  28.368  0.00  0.00    +0.001 C 
ATOM     11  C   UNL     1       0.892  -8.681  27.708  0.00  0.00    -0.005 C 
ATOM     12  C   UNL     1       1.175  -9.801  26.935  0.00  0.00    -0.026 C 
ATOM     13  C   UNL     1       2.460 -10.276  26.791  0.00  0.00    -0.026 C 
ATOM     14  C   UNL     1       3.447  -9.584  27.451  0.00  0.00    -0.005 C 
ATOM     15  C   UNL     1       3.189  -8.472  28.222  0.00  0.00    -0.000 C 
ATOM     16  C   UNL     1       2.733 -11.470  25.959  0.00  0.00    +0.022 C 
ATOM     17  C   UNL     1       2.544 -12.756  26.690  0.00  0.00    +0.005 C 
ATOM     18  C   UNL     1       1.703 -13.765  25.988  0.00  0.00    +0.008 C 
ATOM     19  C   UNL     1       1.913 -13.832  24.511  0.00  0.00    +0.058 C 
ATOM     20  C   UNL     1       2.166 -12.528  23.854  0.00  0.00    +0.008 C 
ATOM     21  C   UNL     1       1.363 -12.470  22.577  0.00  0.00    +0.008 C 
ATOM     22  C   UNL     1       0.325 -13.535  22.671  0.00  0.00    +0.065 C 
ATOM     23  C   UNL     1       0.674 -14.348  23.866  0.00  0.00    +0.150 C 
ATOM     24  O   UNL     1      -0.007 -15.306  24.224  0.00  0.00    -0.296 OA
ATOM     25  C   UNL     1       1.958 -11.321  24.697  0.00  0.00    +0.005 C 
ATOM     26  C   UNL     1       0.560 -10.846  24.840  0.00  0.00    +0.005 C 
ATOM     27  C   UNL     1       0.104 -10.544  26.227  0.00  0.00    +0.026 C 
ENDBRANCH   6  10
BRANCH   3  28
ATOM     28  C   UNL     1      -0.059  -2.591  28.689  0.00  0.00    +0.118 C 
ATOM     29  N   UNL     1      -1.145  -3.332  28.082  0.00  0.00    -0.285 NA
ATOM     30  C   UNL     1      -2.272  -2.473  28.415  0.00  0.00    +0.087 C 
ATOM     31  C   UNL     1      -1.680  -1.066  28.432  0.00  0.00    +0.087 C 
ATOM     32  N   UNL     1      -0.270  -1.293  28.170  0.00  0.00    -0.285 NA
ATOM     33  H   UNL     1      -1.245  -4.260  28.494  0.00  0.00    +0.124 HD
ATOM     34  H   UNL     1      -0.072  -1.261  27.169  0.00  0.00    +0.124 HD
ENDBRANCH   3  28
BRANCH   1  35
ATOM     35  C   UNL     1       2.787  -5.849  26.303  0.00  0.00    +0.090 C 
ATOM     36  C   UNL     1       2.214  -6.516  25.247  0.00  0.00    +0.117 C 
ATOM     37  N   UNL     1       2.939  -7.178  24.346  0.00  0.00    -0.221 NA
ATOM     38  C   UNL     1       4.270  -7.208  24.456  0.00  0.00    +0.199 C 
ATOM     39  N   UNL     1       4.859  -6.569  25.470  0.00  0.00    -0.221 NA
ATOM     40  C   UNL     1       4.160  -5.885  26.406  0.00  0.00    +0.117 C 
ENDBRANCH   1  35
BRANCH   2  41
ATOM     41  C   UNL     1       2.532  -3.062  26.277  0.00  0.00    +0.053 C 
ATOM     42  C   UNL     1       3.345  -2.001  26.957  0.00  0.00    +0.085 C 
ATOM     43  N   UNL     1       3.292  -1.240  25.722  0.00  0.00    -0.239 NA
ATOM     44  C   UNL     1       2.064  -1.968  25.351  0.00  0.00    +0.085 C 
BRANCH  43  45
ATOM     45  S   UNL     1       4.630  -1.691  24.740  0.00  0.00    -0.101 S 
ATOM     46  C   UNL     1       6.096  -2.168  25.602  0.00  0.00    +0.143 C 
ATOM     47  C   UNL     1       6.999  -1.041  25.349  0.00  0.00    +0.240 C 
ATOM     48  O   UNL     1       7.932  -0.728  26.166  0.00  0.00    -0.274 OA
ATOM     49  N   UNL     1       6.729  -0.366  24.139  0.00  0.00    -0.246 N 
ATOM     50  C   UNL     1       5.356  -0.188  23.880  0.00  0.00    +0.272 C 
ATOM     51  O   UNL     1       4.669   0.641  23.288  0.00  0.00    -0.263 OA
ATOM     52  H   UNL     1       4.082  -2.682  23.989  0.00  0.00    +0.107 HD
ATOM     53  H   UNL     1       7.436  -0.048  23.532  0.00  0.00    +0.158 HD
ENDBRANCH  43  45
ENDBRANCH   2  41
TORSDOF 5
ENDMDL
