MODEL 1
REMARK VINA RESULT:    -9.911      0.000      0.000
REMARK INTER + INTRA:         -15.204
REMARK INTER:                 -13.967
REMARK INTRA:                  -1.238
REMARK UNBOUND:                -1.238
REMARK  Name = =
REMARK  7 active torsions:
REMARK  status: ('A' for Active; 'I' for Inactive)
REMARK    1  A    between atoms: N_1  and  C_4
REMARK    2  A    between atoms: N_1  and  S_22
REMARK    3  A    between atoms: C_7  and  O_15
REMARK    4  A    between atoms: C_8  and  N_10
REMARK    5  A    between atoms: O_15  and  N_16
REMARK    6  A    between atoms: S_22  and  C_25
REMARK    7  A    between atoms: C_26  and  N_31
REMARK                            x       y       z     vdW  Elec       q    Type
REMARK                         _______ _______ _______ _____ _____    ______ ____
ROOT
ATOM      1  N   UNL     1       1.893  -6.479  27.160  0.00  0.00    -0.130 N 
ATOM      2  C   UNL     1       2.396  -7.720  26.708  0.00  0.00    +0.327 C 
ATOM      3  O   UNL     1       1.930  -8.781  27.186  0.00  0.00    -0.263 OA
ENDROOT
BRANCH   1   4
ATOM      4  C   UNL     1       0.856  -6.427  28.144  0.00  0.00    +0.078 C 
ATOM      5  C   UNL     1      -0.448  -6.166  27.853  0.00  0.00    +0.020 C 
ATOM      6  C   UNL     1      -1.437  -6.124  28.844  0.00  0.00    +0.042 C 
ATOM      7  C   UNL     1      -1.103  -6.349  30.160  0.00  0.00    +0.179 C 
ATOM      8  C   UNL     1       0.222  -6.611  30.430  0.00  0.00    +0.094 C 
ATOM      9  C   UNL     1       1.194  -6.653  29.463  0.00  0.00    +0.035 C 
BRANCH   8  10
ATOM     10  N   UNL     1       0.612  -6.852  31.775  0.00  0.00    -0.261 N 
ATOM     11  C   UNL     1       1.546  -6.135  32.405  0.00  0.00    +0.070 C 
ATOM     12  C   UNL     1       1.660  -6.644  33.677  0.00  0.00    +0.018 C 
ATOM     13  C   UNL     1       0.767  -7.680  33.776  0.00  0.00    +0.018 C 
ATOM     14  C   UNL     1       0.117  -7.798  32.577  0.00  0.00    +0.070 C 
ENDBRANCH   8  10
BRANCH   7  15
ATOM     15  O   UNL     1      -1.993  -6.328  31.188  0.00  0.00    -0.400 OA
BRANCH  15  16
ATOM     16  N   UNL     1      -3.348  -6.360  31.108  0.00  0.00    -0.121 NA
ATOM     17  C   UNL     1      -3.935  -7.578  31.590  0.00  0.00    +0.113 C 
ATOM     18  C   UNL     1      -3.920  -7.696  33.090  0.00  0.00    +0.021 C 
ATOM     19  C   UNL     1      -4.321  -6.441  33.791  0.00  0.00    +0.003 C 
ATOM     20  C   UNL     1      -3.645  -5.229  33.239  0.00  0.00    +0.021 C 
ATOM     21  C   UNL     1      -3.892  -5.181  31.749  0.00  0.00    +0.113 C 
ENDBRANCH  15  16
ENDBRANCH   7  15
ENDBRANCH   1   4
BRANCH   1  22
ATOM     22  S   UNL     1       2.582  -5.039  26.470  0.00  0.00    +0.084 S 
ATOM     23  O   UNL     1       1.569  -4.205  25.780  0.00  0.00    -0.149 OA
ATOM     24  O   UNL     1       3.670  -5.385  25.533  0.00  0.00    -0.149 OA
BRANCH  22  25
ATOM     25  C   UNL     1       3.278  -3.992  27.789  0.00  0.00    +0.139 C 
ATOM     26  C   UNL     1       3.085  -2.573  27.421  0.00  0.00    +0.074 C 
ATOM     27  C   UNL     1       4.141  -1.827  27.169  0.00  0.00    +0.131 C 
ATOM     28  N   UNL     1       5.492  -2.269  27.235  0.00  0.00    -0.327 N 
ATOM     29  C   UNL     1       5.738  -3.612  27.606  0.00  0.00    +0.060 C 
ATOM     30  C   UNL     1       4.709  -4.368  27.856  0.00  0.00    +0.037 C 
ATOM     31  H   UNL     1       6.235  -1.657  27.028  0.00  0.00    +0.147 HD
BRANCH  26  32
ATOM     32  N   UNL     1       1.753  -2.030  27.363  0.00  0.00    -0.233 N 
ATOM     33  C   UNL     1       0.766  -2.220  28.227  0.00  0.00    +0.161 C 
ATOM     34  N   UNL     1       0.640  -2.840  29.403  0.00  0.00    -0.207 NA
ATOM     35  C   UNL     1      -0.512  -2.878  30.094  0.00  0.00    +0.200 C 
ATOM     36  N   UNL     1      -1.608  -2.261  29.587  0.00  0.00    -0.221 NA
ATOM     37  C   UNL     1      -1.530  -1.629  28.415  0.00  0.00    +0.123 C 
ATOM     38  C   UNL     1      -0.351  -1.584  27.696  0.00  0.00    +0.134 C 
ATOM     39  N   UNL     1       0.015  -1.047  26.546  0.00  0.00    -0.223 NA
ATOM     40  C   UNL     1       1.311  -1.304  26.308  0.00  0.00    +0.173 C 
ENDBRANCH  26  32
ENDBRANCH  22  25
ENDBRANCH   1  22
TORSDOF 7
ENDMDL
