REMARK  Name = =
REMARK  9 active torsions:
REMARK  status: ('A' for Active; 'I' for Inactive)
REMARK    1  A    between atoms: N_1  and  C_23
REMARK    2  A    between atoms: N_1  and  C_39
REMARK    3  A    between atoms: C_2  and  C_4
REMARK    4  A    between atoms: C_22  and  C_32
REMARK    5  A    between atoms: C_25  and  N_33
REMARK    6  A    between atoms: C_41  and  N_45
REMARK    7  A    between atoms: C_42  and  O_54
REMARK    8  A    between atoms: C_50  and  C_51
REMARK    9  A    between atoms: C_51  and  N_53
REMARK                            x       y       z     vdW  Elec       q    Type
REMARK                         _______ _______ _______ _____ _____    ______ ____
ROOT
ATOM      1  N   UNL     1       1.921  -7.815  26.345  0.00  0.00    -0.234 N 
ATOM      2  C   UNL     1       1.036  -8.837  26.633  0.00  0.00    +0.256 C 
ATOM      3  O   UNL     1       0.205  -8.591  27.601  0.00  0.00    -0.269 OA
ENDROOT
BRANCH   2   4
ATOM      4  C   UNL     1       0.887 -10.146  26.023  0.00  0.00    +0.054 C 
ATOM      5  C   UNL     1       1.597 -11.241  26.529  0.00  0.00    +0.000 C 
ATOM      6  C   UNL     1       1.525 -12.502  25.983  0.00  0.00    -0.021 C 
ATOM      7  C   UNL     1       0.727 -12.744  24.886  0.00  0.00    -0.021 C 
ATOM      8  C   UNL     1       0.016 -11.703  24.361  0.00  0.00    -0.004 C 
ATOM      9  C   UNL     1       0.106 -10.427  24.932  0.00  0.00    +0.004 C 
ATOM     10  C   UNL     1       0.647 -14.129  24.297  0.00  0.00    +0.052 C 
ATOM     11  C   UNL     1       2.078 -14.627  24.316  0.00  0.00    -0.026 C 
ATOM     12  C   UNL     1       2.846 -14.409  25.354  0.00  0.00    -0.022 C 
ATOM     13  C   UNL     1       4.226 -14.895  25.357  0.00  0.00    -0.005 C 
ATOM     14  C   UNL     1       4.702 -15.556  24.312  0.00  0.00    -0.005 C 
ATOM     15  C   UNL     1       3.889 -15.812  23.154  0.00  0.00    -0.026 C 
ATOM     16  C   UNL     1       2.528 -15.356  23.155  0.00  0.00    -0.030 C 
ATOM     17  C   UNL     1       1.524 -16.379  22.650  0.00  0.00    +0.026 C 
ATOM     18  C   UNL     1       2.030 -17.738  23.138  0.00  0.00    +0.005 C 
ATOM     19  C   UNL     1       3.301 -18.095  22.443  0.00  0.00    +0.005 C 
ATOM     20  C   UNL     1       4.243 -16.940  22.271  0.00  0.00    +0.026 C 
ATOM     21  C   UNL     1       2.286 -13.655  26.529  0.00  0.00    +0.052 C 
ENDBRANCH   2   4
BRANCH   1  23
ATOM     22  C   UNL     1       4.157  -8.285  25.427  0.00  0.00    +0.020 C 
ATOM     23  C   UNL     1       2.914  -7.723  25.333  0.00  0.00    +0.058 C 
ATOM     24  C   UNL     1       2.558  -7.017  24.176  0.00  0.00    +0.030 C 
ATOM     25  C   UNL     1       3.399  -6.846  23.096  0.00  0.00    +0.049 C 
ATOM     26  C   UNL     1       4.649  -7.416  23.199  0.00  0.00    +0.014 C 
ATOM     27  C   UNL     1       5.009  -8.117  24.345  0.00  0.00    +0.001 C 
BRANCH  22  32
ATOM     28  C   UNL     1       5.593  -8.212  27.442  0.00  0.00    +0.105 C 
ATOM     29  N   UNL     1       6.884  -8.506  26.942  0.00  0.00    -0.270 NA
ATOM     30  C   UNL     1       6.643  -9.507  25.934  0.00  0.00    +0.217 C 
ATOM     31  O   UNL     1       5.419 -10.113  26.309  0.00  0.00    -0.334 OA
ATOM     32  C   UNL     1       4.583  -9.029  26.626  0.00  0.00    +0.156 C 
ATOM     33  H   UNL     1       7.485  -8.872  27.681  0.00  0.00    +0.126 HD
ENDBRANCH  22  32
BRANCH  25  34
ATOM     34  N   UNL     1       3.002  -6.138  21.935  0.00  0.00    -0.305 N 
ATOM     35  C   UNL     1       3.906  -5.619  20.942  0.00  0.00    +0.110 C 
ATOM     36  C   UNL     1       3.736  -6.395  19.649  0.00  0.00    +0.110 C 
ATOM     37  N   UNL     1       2.358  -6.766  19.487  0.00  0.00    -0.214 NA
ATOM     38  C   UNL     1       1.420  -5.882  20.134  0.00  0.00    +0.110 C 
ATOM     39  C   UNL     1       1.579  -5.889  21.645  0.00  0.00    +0.110 C 
ENDBRANCH  25  34
ENDBRANCH   1  23
BRANCH   1  40
ATOM     40  C   UNL     1       1.871  -6.687  27.261  0.00  0.00    +0.060 C 
ATOM     41  C   UNL     1       1.486  -5.432  26.951  0.00  0.00    +0.033 C 
ATOM     42  C   UNL     1       1.472  -4.404  27.909  0.00  0.00    +0.087 C 
ATOM     43  C   UNL     1       1.864  -4.725  29.175  0.00  0.00    +0.147 C 
ATOM     44  C   UNL     1       2.263  -5.982  29.541  0.00  0.00    +0.039 C 
ATOM     45  C   UNL     1       2.259  -6.962  28.556  0.00  0.00    +0.018 C 
BRANCH  42  46
ATOM     46  N   UNL     1       1.066  -3.143  27.507  0.00  0.00    -0.274 N 
ATOM     47  C   UNL     1       1.916  -2.392  26.674  0.00  0.00    +0.106 C 
ATOM     48  C   UNL     1       2.310  -1.048  27.174  0.00  0.00    +0.188 C 
ATOM     49  O   UNL     1       1.664  -0.617  28.302  0.00  0.00    -0.469 OA
ATOM     50  C   UNL     1       0.312  -0.938  28.270  0.00  0.00    +0.231 C 
ATOM     51  C   UNL     1       0.122  -2.452  28.293  0.00  0.00    +0.156 C 
BRANCH  51  52
ATOM     52  C   UNL     1      -1.233  -2.727  27.768  0.00  0.00    +0.041 C 
ATOM     53  C   UNL     1      -2.102  -3.456  28.444  0.00  0.00    +0.012 C 
BRANCH  52  54
ATOM     54  N   UNL     1      -1.617  -2.202  26.512  0.00  0.00    -0.359 N 
ATOM     55  H   UNL     1      -0.984  -1.656  25.992  0.00  0.00    +0.142 HD
ATOM     56  H   UNL     1      -2.518  -2.383  26.157  0.00  0.00    +0.142 HD
ENDBRANCH  52  54
ENDBRANCH  51  52
ENDBRANCH  42  46
BRANCH  43  57
ATOM     57  O   UNL     1       1.843  -3.695  30.109  0.00  0.00    -0.504 OA
ATOM     58  H   UNL     1       1.569  -2.836  29.853  0.00  0.00    +0.292 HD
ENDBRANCH  43  57
ENDBRANCH   1  40
TORSDOF 9
