REMARK  Name = =
REMARK  9 active torsions:
REMARK  status: ('A' for Active; 'I' for Inactive)
REMARK    1  A    between atoms: C_1  and  N_21
REMARK    2  A    between atoms: C_3  and  N_25
REMARK    3  A    between atoms: O_6  and  S_9
REMARK    4  A    between atoms: O_7  and  S_9
REMARK    5  A    between atoms: S_9  and  C_10
REMARK    6  A    between atoms: C_10  and  N_15
REMARK    7  A    between atoms: N_21  and  O_22
REMARK    8  A    between atoms: O_22  and  N_23
REMARK    9  A    between atoms: C_26  and  S_27
REMARK                            x       y       z     vdW  Elec       q    Type
REMARK                         _______ _______ _______ _____ _____    ______ ____
ROOT
ATOM      1  N   UNL     1      49.722 157.545  30.642  0.00  0.00    -0.249 NA
ATOM      2  C   UNL     1      50.350 158.631  30.698  0.00  0.00    +0.113 C 
ENDROOT
BRANCH   2   3
ATOM      3  S   UNL     1      50.279 159.676  32.135  0.00  0.00    -0.113 S 
ATOM      4  C   UNL     1      48.712 159.764  32.970  0.00  0.00    +0.135 C 
ATOM      5  C   UNL     1      48.468 161.225  33.057  0.00  0.00    +0.239 C 
ATOM      6  O   UNL     1      47.742 161.727  33.980  0.00  0.00    -0.274 OA
ATOM      7  N   UNL     1      49.110 161.946  32.037  0.00  0.00    -0.247 N 
ATOM      8  C   UNL     1      50.412 161.518  31.739  0.00  0.00    +0.265 C 
ATOM      9  O   UNL     1      51.449 162.032  31.334  0.00  0.00    -0.264 OA
ATOM     10  H   UNL     1      51.285 159.106  32.850  0.00  0.00    +0.098 HD
ATOM     11  H   UNL     1      48.679 162.696  31.567  0.00  0.00    +0.158 HD
ENDBRANCH   2   3
BRANCH   1  14
ATOM     12  C   UNL     1      51.528 155.969  28.935  0.00  0.00    +0.142 C 
ATOM     13  C   UNL     1      50.469 155.347  29.782  0.00  0.00    +0.075 C 
ATOM     14  C   UNL     1      49.696 156.633  29.569  0.00  0.00    +0.164 C 
ATOM     15  N   UNL     1      50.522 156.887  28.436  0.00  0.00    -0.266 NA
ATOM     16  H   UNL     1      50.106 156.602  27.549  0.00  0.00    +0.126 HD
BRANCH  12  17
ATOM     17  N   UNL     1      52.435 156.720  29.816  0.00  0.00    -0.153 NA
ATOM     18  H   UNL     1      52.671 156.141  30.622  0.00  0.00    +0.158 HD
BRANCH  17  19
ATOM     19  O   UNL     1      53.585 157.065  29.164  0.00  0.00    -0.159 OA
BRANCH  19  20
ATOM     20  N   UNL     1      54.017 158.356  29.026  0.00  0.00    +0.119 NA
ATOM     21  O   UNL     1      54.902 158.668  28.207  0.00  0.00    -0.068 OA
ENDBRANCH  19  20
ENDBRANCH  17  19
ENDBRANCH  12  17
ENDBRANCH   1  14
TORSDOF 5
REMARK  Name = =
REMARK  9 active torsions:
REMARK  status: ('A' for Active; 'I' for Inactive)
REMARK    1  A    between atoms: C_1  and  N_21
REMARK    2  A    between atoms: C_3  and  N_25
REMARK    3  A    between atoms: O_6  and  S_9
REMARK    4  A    between atoms: O_7  and  S_9
REMARK    5  A    between atoms: S_9  and  C_10
REMARK    6  A    between atoms: C_10  and  N_15
REMARK    7  A    between atoms: N_21  and  O_22
REMARK    8  A    between atoms: O_22  and  N_23
REMARK    9  A    between atoms: C_26  and  S_27
REMARK                            x       y       z     vdW  Elec       q    Type
REMARK                         _______ _______ _______ _____ _____    ______ ____
ROOT
ATOM      1  P   UNL     1      52.498 155.086  27.813  0.00  0.00    +0.000 P 
ENDROOT
TORSDOF 0
REMARK  Name = =
REMARK  9 active torsions:
REMARK  status: ('A' for Active; 'I' for Inactive)
REMARK    1  A    between atoms: C_1  and  N_21
REMARK    2  A    between atoms: C_3  and  N_25
REMARK    3  A    between atoms: O_6  and  S_9
REMARK    4  A    between atoms: O_7  and  S_9
REMARK    5  A    between atoms: S_9  and  C_10
REMARK    6  A    between atoms: C_10  and  N_15
REMARK    7  A    between atoms: N_21  and  O_22
REMARK    8  A    between atoms: O_22  and  N_23
REMARK    9  A    between atoms: C_26  and  S_27
REMARK                            x       y       z     vdW  Elec       q    Type
REMARK                         _______ _______ _______ _____ _____    ______ ____
ROOT
ATOM      1  C   UNL     1      53.228 153.079  25.556  0.00  0.00    +0.164 C 
ATOM      2  C   UNL     1      52.263 153.651  24.561  0.00  0.00    +0.106 C 
ATOM      3  N   UNL     1      52.886 154.738  23.873  0.00  0.00    -0.295 NA
ATOM      4  C   UNL     1      54.283 154.776  24.185  0.00  0.00    +0.072 C 
ATOM      5  C   UNL     1      54.427 153.942  25.426  0.00  0.00    +0.055 C 
ATOM      6  H   UNL     1      52.767 154.614  22.868  0.00  0.00    +0.123 HD
ENDROOT
BRANCH   1   7
ATOM      7  N   UNL     1      53.414 151.684  25.289  0.00  0.00    -0.257 NA
ATOM      8  C   UNL     1      52.358 150.867  25.860  0.00  0.00    +0.073 C 
ATOM      9  C   UNL     1      52.335 149.552  25.153  0.00  0.00    +0.017 C 
ATOM     10  C   UNL     1      53.682 148.868  25.148  0.00  0.00    +0.003 C 
ATOM     11  C   UNL     1      54.817 149.809  24.919  0.00  0.00    +0.017 C 
ATOM     12  C   UNL     1      54.661 151.122  25.689  0.00  0.00    +0.073 C 
ENDBRANCH   1   7
BRANCH   1  13
ATOM     13  S   UNL     1      52.509 153.145  27.251  0.00  0.00    -0.079 S 
BRANCH  13  14
ATOM     14  O   UNL     1      51.410 154.435  27.038  0.00  0.00    -0.279 OA
ATOM     15  H   UNL     1      50.938 154.598  27.869  0.00  0.00    +0.242 HD
ENDBRANCH  13  14
BRANCH  13  16
ATOM     16  O   UNL     1      53.207 154.087  29.007  0.00  0.00    -0.279 OA
ATOM     17  H   UNL     1      52.583 153.924  29.731  0.00  0.00    +0.242 HD
ENDBRANCH  13  16
ENDBRANCH   1  13
TORSDOF 4
REMARK  Name = =
REMARK  9 active torsions:
REMARK  status: ('A' for Active; 'I' for Inactive)
REMARK    1  A    between atoms: C_1  and  N_21
REMARK    2  A    between atoms: C_3  and  N_25
REMARK    3  A    between atoms: O_6  and  S_9
REMARK    4  A    between atoms: O_7  and  S_9
REMARK    5  A    between atoms: S_9  and  C_10
REMARK    6  A    between atoms: C_10  and  N_15
REMARK    7  A    between atoms: N_21  and  O_22
REMARK    8  A    between atoms: O_22  and  N_23
REMARK    9  A    between atoms: C_26  and  S_27
REMARK                            x       y       z     vdW  Elec       q    Type
REMARK                         _______ _______ _______ _____ _____    ______ ____
ROOT
ATOM      1  O   HOH     1      52.867 156.272  26.652  0.00  0.00    -0.253 OA
ATOM      2  H   HOH     0      53.837 156.272  26.652  0.00  0.00    +0.253 HD
ENDROOT
TORSDOF 0
