REMARK  Name = =
REMARK  1 active torsions:
REMARK  status: ('A' for Active; 'I' for Inactive)
REMARK    1  A    between atoms: N_11  and  O_12
REMARK                            x       y       z     vdW  Elec       q    Type
REMARK                         _______ _______ _______ _____ _____    ______ ____
ROOT
ATOM      1  C   UNL     1      -3.616  -3.885  31.783  0.00  0.00    +0.214 C 
ATOM      2  N   UNL     1      -3.666  -5.173  32.370  0.00  0.00    -0.227 N 
ATOM      3  C   UNL     1      -4.460  -5.645  33.341  0.00  0.00    +0.173 C 
ATOM      4  N   UNL     1      -4.190  -6.930  33.614  0.00  0.00    -0.226 NA
ATOM      5  C   UNL     1      -3.180  -7.334  32.799  0.00  0.00    +0.097 C 
ATOM      6  C   UNL     1      -2.871  -6.230  32.037  0.00  0.00    +0.076 C 
ATOM      7  C   UNL     1      -1.867  -6.326  31.099  0.00  0.00    +0.017 C 
ATOM      8  C   UNL     1      -1.189  -7.514  30.935  0.00  0.00    +0.001 C 
ATOM      9  C   UNL     1      -1.521  -8.599  31.711  0.00  0.00    +0.002 C 
ATOM     10  C   UNL     1      -2.528  -8.543  32.669  0.00  0.00    +0.020 C 
ATOM     11  N   UNL     1      -4.058  -3.591  30.610  0.00  0.00    -0.067 NA
ENDROOT
BRANCH  11  12
ATOM     12  O   UNL     1      -4.642  -4.520  29.782  0.00  0.00    -0.408 OA
ATOM     13  H   UNL     1      -4.951  -4.264  28.935  0.00  0.00    +0.328 HD
ENDBRANCH  11  12
TORSDOF 1
