REMARK  Name = =
REMARK  2 active torsions:
REMARK  status: ('A' for Active; 'I' for Inactive)
REMARK    1  A    between atoms: C_1  and  C_12
REMARK    2  A    between atoms: N_11  and  O_21
REMARK                            x       y       z     vdW  Elec       q    Type
REMARK                         _______ _______ _______ _____ _____    ______ ____
ROOT
ATOM      1  C   UNL     1      -3.094  -4.754  30.008  0.00  0.00    +0.177 C 
ATOM      2  N   UNL     1      -3.080  -5.935  30.764  0.00  0.00    -0.230 N 
ATOM      3  C   UNL     1      -4.013  -6.896  30.899  0.00  0.00    +0.173 C 
ATOM      4  N   UNL     1      -3.560  -7.870  31.706  0.00  0.00    -0.226 NA
ATOM      5  C   UNL     1      -2.306  -7.542  32.110  0.00  0.00    +0.097 C 
ATOM      6  C   UNL     1      -2.015  -6.336  31.518  0.00  0.00    +0.076 C 
ATOM      7  C   UNL     1      -0.783  -5.752  31.755  0.00  0.00    +0.017 C 
ATOM      8  C   UNL     1       0.153  -6.342  32.564  0.00  0.00    +0.001 C 
ATOM      9  C   UNL     1      -0.178  -7.554  33.139  0.00  0.00    +0.002 C 
ATOM     10  C   UNL     1      -1.382  -8.167  32.933  0.00  0.00    +0.020 C 
ATOM     11  N   UNL     1      -2.640  -4.884  28.776  0.00  0.00    -0.071 NA
ENDROOT
BRANCH   1  12
ATOM     12  C   UNL     1      -3.550  -3.453  30.469  0.00  0.00    +0.041 C 
ATOM     13  C   UNL     1      -4.490  -3.134  31.327  0.00  0.00    +0.036 C 
ATOM     14  C   UNL     1      -4.578  -1.758  31.458  0.00  0.00    +0.158 C 
ATOM     15  N   UNL     1      -3.714  -1.173  30.702  0.00  0.00    -0.248 NA
ATOM     16  C   UNL     1      -2.965  -2.142  29.989  0.00  0.00    +0.157 C 
ATOM     17  N   UNL     1      -5.509  -1.252  32.315  0.00  0.00    -0.225 NA
ATOM     18  C   UNL     1      -6.335  -2.026  33.030  0.00  0.00    +0.101 C 
ATOM     19  C   UNL     1      -6.294  -3.399  32.940  0.00  0.00    +0.021 C 
ATOM     20  C   UNL     1      -5.354  -3.942  32.074  0.00  0.00    +0.004 C 
ENDBRANCH   1  12
BRANCH  11  21
ATOM     21  O   UNL     1      -2.568  -3.864  27.890  0.00  0.00    -0.408 OA
ATOM     22  H   UNL     1      -2.236  -4.016  27.027  0.00  0.00    +0.328 HD
ENDBRANCH  11  21
TORSDOF 2
