REMARK  Name = =
REMARK  4 active torsions:
REMARK  status: ('A' for Active; 'I' for Inactive)
REMARK    1  A    between atoms: C_1  and  C_12
REMARK    2  A    between atoms: C_10  and  C_22
REMARK    3  A    between atoms: N_11  and  O_21
REMARK    4  A    between atoms: C_22  and  N_23
REMARK                            x       y       z     vdW  Elec       q    Type
REMARK                         _______ _______ _______ _____ _____    ______ ____
ROOT
ATOM      1  C   UNL     1      -3.971  -4.401  31.113  0.00  0.00    +0.177 C 
ATOM      2  N   UNL     1      -4.366  -3.040  31.236  0.00  0.00    -0.230 N 
ATOM      3  C   UNL     1      -3.567  -1.962  31.115  0.00  0.00    +0.173 C 
ATOM      4  N   UNL     1      -4.281  -0.834  31.293  0.00  0.00    -0.226 NA
ATOM      5  C   UNL     1      -5.566  -1.168  31.535  0.00  0.00    +0.094 C 
ATOM      6  C   UNL     1      -5.601  -2.548  31.495  0.00  0.00    +0.076 C 
ATOM      7  C   UNL     1      -6.810  -3.184  31.712  0.00  0.00    +0.017 C 
ATOM      8  C   UNL     1      -7.984  -2.502  31.965  0.00  0.00    +0.001 C 
ATOM      9  C   UNL     1      -7.905  -1.112  31.996  0.00  0.00    -0.001 C 
ATOM     10  C   UNL     1      -6.719  -0.453  31.785  0.00  0.00    +0.012 C 
ATOM     11  N   UNL     1      -3.877  -4.900  29.946  0.00  0.00    -0.071 NA
ENDROOT
BRANCH   1  12
ATOM     12  C   UNL     1      -3.686  -5.191  32.289  0.00  0.00    +0.041 C 
ATOM     13  C   UNL     1      -2.934  -6.283  32.353  0.00  0.00    +0.036 C 
ATOM     14  C   UNL     1      -2.899  -6.756  33.647  0.00  0.00    +0.158 C 
ATOM     15  N   UNL     1      -3.597  -6.013  34.424  0.00  0.00    -0.248 NA
ATOM     16  C   UNL     1      -4.181  -4.938  33.685  0.00  0.00    +0.157 C 
ATOM     17  N   UNL     1      -2.188  -7.856  33.916  0.00  0.00    -0.225 NA
ATOM     18  C   UNL     1      -1.515  -8.502  32.952  0.00  0.00    +0.101 C 
ATOM     19  C   UNL     1      -1.521  -8.069  31.646  0.00  0.00    +0.021 C 
ATOM     20  C   UNL     1      -2.244  -6.938  31.340  0.00  0.00    +0.004 C 
ENDBRANCH   1  12
BRANCH  11  21
ATOM     21  O   UNL     1      -4.117  -4.262  28.781  0.00  0.00    -0.408 OA
ATOM     22  H   UNL     1      -4.020  -4.718  27.968  0.00  0.00    +0.328 HD
ENDBRANCH  11  21
BRANCH  10  23
ATOM     23  C   UNL     1      -6.667   1.022  31.825  0.00  0.00    +0.094 C 
BRANCH  23  24
ATOM     24  N   UNL     1      -7.990   1.612  31.835  0.00  0.00    -0.317 NA
ATOM     25  H   UNL     1      -7.909   2.628  31.863  0.00  0.00    +0.119 HD
ATOM     26  H   UNL     1      -8.500   1.289  32.657  0.00  0.00    +0.119 HD
ENDBRANCH  23  24
ENDBRANCH  10  23
TORSDOF 4
