REMARK  Name = =
REMARK  6 active torsions:
REMARK  status: ('A' for Active; 'I' for Inactive)
REMARK    1  A    between atoms: C_1  and  C_12
REMARK    2  A    between atoms: C_10  and  C_22
REMARK    3  A    between atoms: N_11  and  O_21
REMARK    4  A    between atoms: C_22  and  N_23
REMARK    5  A    between atoms: C_22  and  O_24
REMARK    6  A    between atoms: O_24  and  C_25
REMARK                            x       y       z     vdW  Elec       q    Type
REMARK                         _______ _______ _______ _____ _____    ______ ____
ROOT
ATOM      1  C   UNL     1      -5.727  -2.880  32.918  0.00  0.00    +0.177 C 
ATOM      2  N   UNL     1      -4.970  -4.035  32.566  0.00  0.00    -0.230 N 
ATOM      3  C   UNL     1      -5.121  -5.288  33.031  0.00  0.00    +0.173 C 
ATOM      4  N   UNL     1      -4.205  -6.094  32.469  0.00  0.00    -0.226 NA
ATOM      5  C   UNL     1      -3.463  -5.351  31.639  0.00  0.00    +0.097 C 
ATOM      6  C   UNL     1      -3.952  -4.065  31.709  0.00  0.00    +0.076 C 
ATOM      7  C   UNL     1      -3.349  -3.090  30.935  0.00  0.00    +0.017 C 
ATOM      8  C   UNL     1      -2.279  -3.375  30.103  0.00  0.00    +0.001 C 
ATOM      9  C   UNL     1      -1.813  -4.671  30.053  0.00  0.00    +0.002 C 
ATOM     10  C   UNL     1      -2.386  -5.672  30.809  0.00  0.00    +0.052 C 
ATOM     11  N   UNL     1      -5.300  -2.189  33.946  0.00  0.00    -0.071 NA
ENDROOT
BRANCH   1  12
ATOM     12  C   UNL     1      -6.918  -2.431  32.244  0.00  0.00    +0.041 C 
ATOM     13  C   UNL     1      -8.195  -2.608  32.492  0.00  0.00    +0.036 C 
ATOM     14  C   UNL     1      -9.005  -1.986  31.565  0.00  0.00    +0.158 C 
ATOM     15  N   UNL     1      -8.283  -1.380  30.674  0.00  0.00    -0.248 NA
ATOM     16  C   UNL     1      -6.901  -1.594  30.996  0.00  0.00    +0.157 C 
ATOM     17  N   UNL     1     -10.369  -2.036  31.628  0.00  0.00    -0.225 NA
ATOM     18  C   UNL     1     -11.007  -2.699  32.605  0.00  0.00    +0.101 C 
ATOM     19  C   UNL     1     -10.240  -3.335  33.553  0.00  0.00    +0.021 C 
ATOM     20  C   UNL     1      -8.841  -3.292  33.500  0.00  0.00    +0.004 C 
ENDBRANCH   1  12
BRANCH  11  21
ATOM     21  O   UNL     1      -5.917  -1.084  34.401  0.00  0.00    -0.408 OA
ATOM     22  H   UNL     1      -5.571  -0.625  35.141  0.00  0.00    +0.328 HD
ENDBRANCH  11  21
BRANCH  10  23
ATOM     23  C   UNL     1      -1.864  -7.060  30.739  0.00  0.00    +0.250 C 
BRANCH  23  24
ATOM     24  N   UNL     1      -1.855  -7.562  29.391  0.00  0.00    -0.285 NA
ATOM     25  H   UNL     1      -2.780  -7.445  28.978  0.00  0.00    +0.122 HD
ATOM     26  H   UNL     1      -1.609  -8.552  29.398  0.00  0.00    +0.122 HD
ENDBRANCH  23  24
BRANCH  23  27
ATOM     27  O   UNL     1      -0.614  -7.188  31.377  0.00  0.00    -0.425 OA
BRANCH  27  28
ATOM     28  C   UNL     1      -0.420  -7.707  32.629  0.00  0.00    +0.419 C 
ATOM     29  O   UNL     1      -1.454  -8.101  33.262  0.00  0.00    -0.237 OA
ENDBRANCH  27  28
ENDBRANCH  23  27
ENDBRANCH  10  23
TORSDOF 6
