REMARK  Name = =
REMARK  7 active torsions:
REMARK  status: ('A' for Active; 'I' for Inactive)
REMARK    1  A    between atoms: C_1  and  C_12
REMARK    2  A    between atoms: C_7  and  C_21
REMARK    3  A    between atoms: C_10  and  C_29
REMARK    4  A    between atoms: N_11  and  O_28
REMARK    5  A    between atoms: C_29  and  N_30
REMARK    6  A    between atoms: C_29  and  O_31
REMARK    7  A    between atoms: O_31  and  C_32
REMARK                            x       y       z     vdW  Elec       q    Type
REMARK                         _______ _______ _______ _____ _____    ______ ____
ROOT
ATOM      1  C   UNL     1      -2.053  -3.813  29.732  0.00  0.00    +0.177 C 
ATOM      2  N   UNL     1      -3.019  -3.041  30.406  0.00  0.00    -0.230 N 
ATOM      3  C   UNL     1      -3.493  -1.838  29.908  0.00  0.00    +0.173 C 
ATOM      4  N   UNL     1      -4.424  -1.345  30.698  0.00  0.00    -0.226 NA
ATOM      5  C   UNL     1      -4.608  -2.180  31.733  0.00  0.00    +0.097 C 
ATOM      6  C   UNL     1      -3.712  -3.242  31.530  0.00  0.00    +0.072 C 
ATOM      7  C   UNL     1      -3.707  -4.292  32.437  0.00  0.00    +0.001 C 
ATOM      8  C   UNL     1      -4.603  -4.246  33.513  0.00  0.00    -0.002 C 
ATOM      9  C   UNL     1      -5.461  -3.183  33.669  0.00  0.00    +0.002 C 
ATOM     10  C   UNL     1      -5.491  -2.131  32.799  0.00  0.00    +0.052 C 
ATOM     11  N   UNL     1      -2.406  -4.811  28.966  0.00  0.00    -0.071 NA
ENDROOT
BRANCH   1  12
ATOM     12  C   UNL     1      -0.654  -3.513  29.797  0.00  0.00    +0.041 C 
ATOM     13  C   UNL     1       0.393  -4.130  30.322  0.00  0.00    +0.036 C 
ATOM     14  C   UNL     1       1.558  -3.413  30.122  0.00  0.00    +0.158 C 
ATOM     15  N   UNL     1       1.331  -2.335  29.484  0.00  0.00    -0.248 NA
ATOM     16  C   UNL     1      -0.062  -2.254  29.199  0.00  0.00    +0.157 C 
ATOM     17  N   UNL     1       2.717  -3.896  30.580  0.00  0.00    -0.225 NA
ATOM     18  C   UNL     1       2.827  -5.058  31.234  0.00  0.00    +0.101 C 
ATOM     19  C   UNL     1       1.690  -5.789  31.442  0.00  0.00    +0.021 C 
ATOM     20  C   UNL     1       0.456  -5.346  30.994  0.00  0.00    +0.004 C 
ENDBRANCH   1  12
BRANCH   7  21
ATOM     21  C   UNL     1      -2.754  -5.397  32.343  0.00  0.00    +0.063 C 
ATOM     22  C   UNL     1      -3.207  -6.437  31.311  0.00  0.00    -0.023 C 
ATOM     23  C   UNL     1      -3.971  -7.571  31.808  0.00  0.00    -0.030 C 
ATOM     24  C   UNL     1      -4.506  -7.654  33.169  0.00  0.00    +0.030 C 
ATOM     25  C   UNL     1      -4.140  -6.539  34.122  0.00  0.00    +0.027 C 
ATOM     26  C   UNL     1      -2.779  -6.130  33.677  0.00  0.00    -0.036 C 
ATOM     27  C   UNL     1      -1.759  -6.476  34.395  0.00  0.00    -0.008 C 
ENDBRANCH   7  21
BRANCH  11  28
ATOM     28  O   UNL     1      -3.740  -5.124  28.885  0.00  0.00    -0.408 OA
ATOM     29  H   UNL     1      -4.022  -5.835  28.344  0.00  0.00    +0.328 HD
ENDBRANCH  11  28
BRANCH  10  30
ATOM     30  C   UNL     1      -6.409  -0.987  32.993  0.00  0.00    +0.250 C 
BRANCH  30  31
ATOM     31  N   UNL     1      -7.799  -1.384  32.802  0.00  0.00    -0.285 NA
ATOM     32  H   UNL     1      -8.007  -2.189  33.393  0.00  0.00    +0.122 HD
ATOM     33  H   UNL     1      -7.950  -1.632  31.824  0.00  0.00    +0.122 HD
ENDBRANCH  30  31
BRANCH  30  34
ATOM     34  O   UNL     1      -6.149   0.115  32.174  0.00  0.00    -0.425 OA
BRANCH  34  35
ATOM     35  C   UNL     1      -6.948   1.240  32.264  0.00  0.00    +0.419 C 
ATOM     36  O   UNL     1      -8.141   1.127  32.577  0.00  0.00    -0.237 OA
ENDBRANCH  34  35
ENDBRANCH  30  34
ENDBRANCH  10  30
TORSDOF 7
