REMARK  Name = =
REMARK  8 active torsions:
REMARK  status: ('A' for Active; 'I' for Inactive)
REMARK    1  A    between atoms: C_1  and  C_12
REMARK    2  A    between atoms: C_7  and  C_29
REMARK    3  A    between atoms: C_9  and  N_21
REMARK    4  A    between atoms: C_10  and  C_37
REMARK    5  A    between atoms: N_11  and  O_36
REMARK    6  A    between atoms: C_37  and  N_38
REMARK    7  A    between atoms: C_37  and  O_39
REMARK    8  A    between atoms: O_39  and  C_40
REMARK                            x       y       z     vdW  Elec       q    Type
REMARK                         _______ _______ _______ _____ _____    ______ ____
ROOT
ATOM      1  C   UNL     1       0.847  -4.664  28.760  0.00  0.00    +0.177 C 
ATOM      2  N   UNL     1       1.550  -3.815  27.904  0.00  0.00    -0.230 N 
ATOM      3  C   UNL     1       1.658  -2.476  28.201  0.00  0.00    +0.173 C 
ATOM      4  N   UNL     1       2.349  -1.915  27.228  0.00  0.00    -0.226 NA
ATOM      5  C   UNL     1       2.679  -2.881  26.324  0.00  0.00    +0.098 C 
ATOM      6  C   UNL     1       2.170  -4.077  26.759  0.00  0.00    +0.072 C 
ATOM      7  C   UNL     1       2.323  -5.257  26.059  0.00  0.00    -0.002 C 
ATOM      8  C   UNL     1       3.032  -5.147  24.866  0.00  0.00    +0.012 C 
ATOM      9  C   UNL     1       3.557  -3.939  24.406  0.00  0.00    +0.050 C 
ATOM     10  C   UNL     1       3.387  -2.788  25.130  0.00  0.00    +0.065 C 
ATOM     11  N   UNL     1      -0.327  -5.061  28.469  0.00  0.00    -0.071 NA
ENDROOT
BRANCH   1  12
ATOM     12  C   UNL     1       1.428  -5.039  30.043  0.00  0.00    +0.041 C 
ATOM     13  C   UNL     1       0.927  -5.914  30.919  0.00  0.00    +0.036 C 
ATOM     14  C   UNL     1       1.752  -6.002  32.017  0.00  0.00    +0.158 C 
ATOM     15  N   UNL     1       2.762  -5.221  31.904  0.00  0.00    -0.248 NA
ATOM     16  C   UNL     1       2.680  -4.514  30.663  0.00  0.00    +0.157 C 
ATOM     17  N   UNL     1       1.474  -6.832  33.066  0.00  0.00    -0.225 NA
ATOM     18  C   UNL     1       0.373  -7.580  33.030  0.00  0.00    +0.101 C 
ATOM     19  C   UNL     1      -0.488  -7.534  31.960  0.00  0.00    +0.021 C 
ATOM     20  C   UNL     1      -0.208  -6.697  30.901  0.00  0.00    +0.004 C 
ENDBRANCH   1  12
BRANCH   9  21
ATOM     21  N   UNL     1       4.276  -3.999  23.180  0.00  0.00    -0.304 N 
ATOM     22  C   UNL     1       3.737  -3.679  21.883  0.00  0.00    +0.112 C 
ATOM     23  C   UNL     1       4.289  -4.656  20.877  0.00  0.00    +0.115 C 
ATOM     24  N   UNL     1       4.863  -5.846  21.461  0.00  0.00    -0.269 N 
ATOM     25  C   UNL     1       5.800  -5.737  22.565  0.00  0.00    +0.115 C 
ATOM     26  C   UNL     1       5.663  -4.402  23.248  0.00  0.00    +0.112 C 
ATOM     27  C   UNL     1       4.510  -7.149  20.955  0.00  0.00    +0.303 C 
ATOM     28  O   UNL     1       3.698  -7.187  20.002  0.00  0.00    -0.265 OA
ENDBRANCH   9  21
BRANCH   7  29
ATOM     29  C   UNL     1       1.837  -6.533  26.481  0.00  0.00    +0.042 C 
ATOM     30  C   UNL     1       1.754  -7.483  25.246  0.00  0.00    +0.008 C 
ATOM     31  C   UNL     1       1.225  -8.825  25.753  0.00  0.00    +0.001 C 
ATOM     32  C   UNL     1       2.163  -9.432  26.765  0.00  0.00    +0.004 C 
ATOM     33  C   UNL     1       2.354  -8.505  27.948  0.00  0.00    +0.022 C 
ATOM     34  C   UNL     1       2.837  -7.212  27.401  0.00  0.00    -0.040 C 
ATOM     35  C   UNL     1       4.016  -6.769  27.690  0.00  0.00    -0.009 C 
ENDBRANCH   7  29
BRANCH  11  36
ATOM     36  O   UNL     1      -0.922  -4.734  27.274  0.00  0.00    -0.408 OA
ATOM     37  H   UNL     1      -1.787  -5.038  27.083  0.00  0.00    +0.328 HD
ENDBRANCH  11  36
BRANCH  10  38
ATOM     38  C   UNL     1       3.899  -1.475  24.693  0.00  0.00    +0.252 C 
BRANCH  38  39
ATOM     39  N   UNL     1       2.865  -0.444  24.777  0.00  0.00    -0.285 NA
ATOM     40  H   UNL     1       2.103  -0.674  24.139  0.00  0.00    +0.122 HD
ATOM     41  H   UNL     1       3.263   0.459  24.519  0.00  0.00    +0.122 HD
ENDBRANCH  38  39
BRANCH  38  42
ATOM     42  O   UNL     1       4.924  -1.074  25.616  0.00  0.00    -0.425 OA
BRANCH  42  43
ATOM     43  C   UNL     1       6.150  -1.750  25.642  0.00  0.00    +0.419 C 
ATOM     44  O   UNL     1       6.460  -2.473  26.622  0.00  0.00    -0.237 OA
ENDBRANCH  42  43
ENDBRANCH  38  42
ENDBRANCH  10  38
TORSDOF 8
