MODEL 1
REMARK VINA RESULT:   -10.126      0.000      0.000
REMARK INTER + INTRA:         -16.680
REMARK INTER:                 -14.862
REMARK INTRA:                  -1.818
REMARK UNBOUND:                -1.818
REMARK  Name = =
REMARK  9 active torsions:
REMARK  status: ('A' for Active; 'I' for Inactive)
REMARK    1  A    between atoms: N_1  and  C_7
REMARK    2  A    between atoms: C_3  and  C_30
REMARK    3  A    between atoms: C_4  and  N_39
REMARK    4  A    between atoms: C_8  and  N_14
REMARK    5  A    between atoms: C_17  and  N_19
REMARK    6  A    between atoms: N_32  and  C_33
REMARK    7  A    between atoms: N_39  and  P_40
REMARK    8  A    between atoms: P_40  and  N_42
REMARK    9  A    between atoms: P_40  and  O_43
REMARK                            x       y       z     vdW  Elec       q    Type
REMARK                         _______ _______ _______ _____ _____    ______ ____
ROOT
ATOM      1  N   UNL     1      -2.699  -5.649  31.185  0.00  0.00    -0.269 NA
ATOM      2  C   UNL     1      -2.729  -4.490  30.403  0.00  0.00    +0.083 C 
ATOM      3  C   UNL     1      -2.992  -3.225  31.224  0.00  0.00    +0.107 C 
ATOM      4  C   UNL     1      -4.399  -3.420  31.760  0.00  0.00    +0.074 C 
ATOM      5  C   UNL     1      -4.428  -4.626  32.624  0.00  0.00    +0.034 C 
ATOM      6  C   UNL     1      -3.395  -5.659  32.400  0.00  0.00    +0.074 C 
ENDROOT
BRANCH   1   7
ATOM      7  C   UNL     1      -2.135  -6.834  30.685  0.00  0.00    +0.095 C 
ATOM      8  C   UNL     1      -0.670  -6.643  30.386  0.00  0.00    +0.084 C 
ATOM      9  C   UNL     1       0.065  -6.603  31.696  0.00  0.00    +0.087 C 
ATOM     10  C   UNL     1      -0.099  -7.887  32.378  0.00  0.00    +0.174 C 
ATOM     11  O   UNL     1       0.859  -8.433  32.963  0.00  0.00    -0.291 OA
ATOM     12  C   UNL     1      -1.409  -8.515  32.360  0.00  0.00    +0.034 C 
ATOM     13  C   UNL     1      -2.342  -8.015  31.569  0.00  0.00    -0.006 C 
BRANCH   8  14
ATOM     14  N   UNL     1      -0.247  -7.702  29.516  0.00  0.00    -0.271 NA
ATOM     15  C   UNL     1      -1.399  -8.218  28.824  0.00  0.00    +0.074 C 
ATOM     16  C   UNL     1      -1.078  -8.246  27.356  0.00  0.00    +0.035 C 
ATOM     17  C   UNL     1       0.421  -8.155  27.305  0.00  0.00    +0.075 C 
ATOM     18  C   UNL     1       0.732  -7.357  28.551  0.00  0.00    +0.088 C 
BRANCH  17  19
ATOM     19  N   UNL     1       0.996  -9.427  27.245  0.00  0.00    -0.272 NA
ATOM     20  C   UNL     1       0.532 -10.408  26.364  0.00  0.00    +0.077 C 
ATOM     21  C   UNL     1       0.688 -11.835  26.921  0.00  0.00    +0.043 C 
ATOM     22  C   UNL     1       2.087 -12.299  26.721  0.00  0.00    -0.025 C 
ATOM     23  C   UNL     1       3.202 -11.505  26.516  0.00  0.00    -0.025 C 
ATOM     24  C   UNL     1       4.441 -12.086  26.348  0.00  0.00    -0.005 C 
ATOM     25  C   UNL     1       4.544 -13.458  26.390  0.00  0.00    -0.000 C 
ATOM     26  C   UNL     1       3.431 -14.250  26.595  0.00  0.00    -0.000 C 
ATOM     27  C   UNL     1       2.202 -13.684  26.762  0.00  0.00    -0.005 C 
ATOM     28  C   UNL     1       3.268 -10.000  26.441  0.00  0.00    +0.043 C 
ATOM     29  C   UNL     1       2.379  -9.464  27.512  0.00  0.00    +0.077 C 
ENDBRANCH  17  19
ENDBRANCH   8  14
ENDBRANCH   1   7
BRANCH   3  30
ATOM     30  C   UNL     1      -2.872  -2.084  30.304  0.00  0.00    +0.227 C 
ATOM     31  O   UNL     1      -3.718  -1.148  30.249  0.00  0.00    -0.275 OA
ATOM     32  N   UNL     1      -1.756  -2.022  29.429  0.00  0.00    -0.280 N 
ATOM     33  H   UNL     1      -1.094  -2.749  29.466  0.00  0.00    +0.152 HD
BRANCH  32  34
ATOM     34  C   UNL     1      -1.542  -0.949  28.487  0.00  0.00    +0.193 C 
ATOM     35  N   UNL     1      -0.145  -0.764  28.287  0.00  0.00    -0.270 NA
ATOM     36  C   UNL     1       0.399  -1.823  27.434  0.00  0.00    +0.072 C 
ATOM     37  C   UNL     1      -0.255  -1.632  26.068  0.00  0.00    +0.034 C 
ATOM     38  C   UNL     1      -1.727  -1.866  26.256  0.00  0.00    +0.072 C 
ATOM     39  N   UNL     1      -2.321  -1.093  27.289  0.00  0.00    -0.270 NA
ATOM     40  H   UNL     1       0.013   0.140  27.841  0.00  0.00    +0.126 HD
ATOM     41  H   UNL     1      -2.499  -0.159  26.918  0.00  0.00    +0.126 HD
ENDBRANCH  32  34
ENDBRANCH   3  30
BRANCH   4  42
ATOM     42  N   UNL     1      -4.839  -2.265  32.516  0.00  0.00    -0.224 NA
ATOM     43  H   UNL     1      -4.413  -1.421  32.133  0.00  0.00    +0.133 HD
BRANCH  42  44
ATOM     44  P   UNL     1      -6.574  -2.145  32.406  0.00  0.00    +0.339 P 
ATOM     45  O   UNL     1      -7.045  -2.613  31.053  0.00  0.00    -0.255 OA
BRANCH  44  46
ATOM     46  N   UNL     1      -7.060  -0.461  32.589  0.00  0.00    -0.247 NA
ATOM     47  H   UNL     1      -6.629   0.099  31.853  0.00  0.00    +0.129 HD
ATOM     48  H   UNL     1      -6.758  -0.117  33.501  0.00  0.00    +0.129 HD
ENDBRANCH  44  46
BRANCH  44  49
ATOM     49  O   UNL     1      -7.308  -3.002  33.659  0.00  0.00    -0.322 OA
ATOM     50  H   UNL     1      -8.271  -2.902  33.598  0.00  0.00    +0.220 HD
ENDBRANCH  44  49
ENDBRANCH  42  44
ENDBRANCH   4  42
TORSDOF 9
ENDMDL
