MODEL 1
REMARK VINA RESULT:    -6.710      0.000      0.000
REMARK INTER + INTRA:         -10.713
REMARK INTER:                  -9.651
REMARK INTRA:                  -1.062
REMARK UNBOUND:                -1.062
REMARK  Name = =
REMARK  8 active torsions:
REMARK  status: ('A' for Active; 'I' for Inactive)
REMARK    1  A    between atoms: C_1  and  C_19
REMARK    2  A    between atoms: C_1  and  C_28
REMARK    3  A    between atoms: C_13  and  S_33
REMARK    4  A    between atoms: S_18  and  C_19
REMARK    5  A    between atoms: S_18  and  C_26
REMARK    6  A    between atoms: C_28  and  C_30
REMARK    7  A    between atoms: C_30  and  O_32
REMARK    8  A    between atoms: S_33  and  C_34
REMARK                            x       y       z     vdW  Elec       q    Type
REMARK                         _______ _______ _______ _____ _____    ______ ____
ROOT
ATOM      1  C   UNL     1      59.086 160.283  40.629  0.00  0.00    +0.075 C 
ATOM      2  C   UNL     1      58.237 161.376  40.010  0.00  0.00    +0.009 C 
ATOM      3  C   UNL     1      59.038 162.463  39.379  0.00  0.00    +0.005 C 
ATOM      4  C   UNL     1      60.449 162.550  39.857  0.00  0.00    +0.019 C 
ATOM      5  C   UNL     1      61.033 163.872  39.501  0.00  0.00    +0.015 C 
ATOM      6  C   UNL     1      62.335 164.123  40.187  0.00  0.00    +0.006 C 
ATOM      7  C   UNL     1      62.727 165.562  39.929  0.00  0.00    +0.009 C 
ATOM      8  C   UNL     1      62.887 165.739  38.459  0.00  0.00    +0.023 C 
ATOM      9  C   UNL     1      62.070 166.905  38.023  0.00  0.00    -0.031 C 
ATOM     10  C   UNL     1      61.288 167.384  39.222  0.00  0.00    -0.031 C 
ATOM     11  C   UNL     1      61.668 166.537  40.389  0.00  0.00    +0.026 C 
ATOM     12  C   UNL     1      62.648 164.480  37.699  0.00  0.00    +0.016 C 
ATOM     13  C   UNL     1      61.304 163.833  37.988  0.00  0.00    +0.057 C 
ATOM     14  C   UNL     1      62.235 163.941  41.692  0.00  0.00    +0.025 C 
ATOM     15  C   UNL     1      61.496 162.713  42.034  0.00  0.00    -0.035 C 
ATOM     16  C   UNL     1      60.688 162.075  41.215  0.00  0.00    -0.048 C 
ATOM     17  C   UNL     1      60.005 160.840  41.681  0.00  0.00    +0.030 C 
ENDROOT
BRANCH   1  18
ATOM     18  C   UNL     1      59.874 159.618  39.556  0.00  0.00    +0.248 C 
ATOM     19  O   UNL     1      61.124 159.562  39.632  0.00  0.00    -0.284 OA
BRANCH  18  20
ATOM     20  C   UNL     1      59.191 159.030  38.415  0.00  0.00    +0.373 C 
ATOM     21  O   UNL     1      58.952 157.790  38.345  0.00  0.00    -0.242 OA
BRANCH  20  22
ATOM     22  O   UNL     1      58.793 159.859  37.380  0.00  0.00    -0.475 OA
ATOM     23  H   UNL     1      57.885 160.057  37.261  0.00  0.00    +0.295 HD
ENDBRANCH  20  22
ENDBRANCH  18  20
ENDBRANCH   1  18
BRANCH   1  24
ATOM     24  C   UNL     1      58.147 159.285  41.204  0.00  0.00    +0.060 C 
BRANCH  24  25
ATOM     25  S   UNL     1      57.379 159.595  42.570  0.00  0.00    -0.129 S 
ATOM     26  H   UNL     1      57.358 158.472  43.338  0.00  0.00    +0.101 HD
BRANCH  25  33
ATOM     27  N   UNL     1      55.300 161.448  42.378  0.00  0.00    -0.272 N 
ATOM     28  C   UNL     1      56.212 162.456  42.794  0.00  0.00    +0.094 C 
ATOM     29  C   UNL     1      56.161 163.725  42.010  0.00  0.00    +0.022 C 
ATOM     30  C   UNL     1      54.777 164.097  41.553  0.00  0.00    +0.004 C 
ATOM     31  C   UNL     1      53.972 162.928  41.079  0.00  0.00    +0.022 C 
ATOM     32  C   UNL     1      53.934 161.807  42.096  0.00  0.00    +0.094 C 
ATOM     33  C   UNL     1      55.710 160.109  42.238  0.00  0.00    +0.264 C 
ATOM     34  O   UNL     1      54.879 159.244  41.869  0.00  0.00    -0.264 OA
ENDBRANCH  25  33
ENDBRANCH  24  25
ENDBRANCH   1  24
BRANCH  13  35
ATOM     35  S   UNL     1      59.951 164.640  37.091  0.00  0.00    -0.058 S 
BRANCH  35  36
ATOM     36  C   UNL     1      59.401 163.544  35.800  0.00  0.00    +0.270 C 
ATOM     37  O   UNL     1      58.862 164.036  34.766  0.00  0.00    -0.263 OA
ATOM     38  N   UNL     1      59.548 162.140  35.892  0.00  0.00    -0.320 N 
ATOM     39  H   UNL     1      59.964 161.740  36.689  0.00  0.00    +0.146 HD
ATOM     40  H   UNL     1      59.232 161.563  35.158  0.00  0.00    +0.146 HD
ENDBRANCH  35  36
ENDBRANCH  13  35
TORSDOF 8
ENDMDL
