REMARK  Name = =
REMARK  0 active torsions:
REMARK  status: ('A' for Active; 'I' for Inactive)
REMARK                            x       y       z     vdW  Elec       q    Type
REMARK                         _______ _______ _______ _____ _____    ______ ____
ROOT
ATOM      1  C   UNL     1      -4.072  -4.078  30.906  0.00  0.00    +0.003 C 
ATOM      2  C   UNL     1      -4.037  -5.039  31.899  0.00  0.00    +0.021 C 
ATOM      3  C   UNL     1      -3.121  -6.070  31.879  0.00  0.00    +0.099 C 
ATOM      4  N   UNL     1      -2.254  -6.107  30.849  0.00  0.00    -0.242 NA
ATOM      5  C   UNL     1      -2.270  -5.177  29.866  0.00  0.00    +0.099 C 
ATOM      6  C   UNL     1      -3.173  -4.136  29.858  0.00  0.00    +0.021 C 
ENDROOT
TORSDOF 0
