REMARK  Name = =
REMARK  2 active torsions:
REMARK  status: ('A' for Active; 'I' for Inactive)
REMARK    1  A    between atoms: C_1  and  C_15
REMARK    2  A    between atoms: C_15  and  O_17
REMARK                            x       y       z     vdW  Elec       q    Type
REMARK                         _______ _______ _______ _____ _____    ______ ____
ROOT
ATOM      1  C   UNL     1      -1.852  -5.689  30.289  0.00  0.00    +0.004 C 
ATOM      2  C   UNL     1      -2.779  -4.719  30.604  0.00  0.00    -0.002 C 
ATOM      3  C   UNL     1      -2.913  -3.627  29.786  0.00  0.00    -0.000 C 
ATOM      4  C   UNL     1      -2.134  -3.506  28.643  0.00  0.00    -0.000 C 
ATOM      5  C   UNL     1      -1.202  -4.471  28.288  0.00  0.00    -0.000 C 
ATOM      6  C   UNL     1      -1.093  -5.555  29.158  0.00  0.00    -0.002 C 
ATOM      7  C   UNL     1      -3.729  -2.474  30.179  0.00  0.00    -0.000 C 
ATOM      8  C   UNL     1      -4.533  -2.639  31.397  0.00  0.00    -0.000 C 
ATOM      9  C   UNL     1      -4.505  -3.806  32.078  0.00  0.00    -0.000 C 
ATOM     10  C   UNL     1      -3.620  -4.950  31.775  0.00  0.00    -0.000 C 
ATOM     11  C   UNL     1      -5.312  -3.966  33.195  0.00  0.00    -0.000 C 
ATOM     12  C   UNL     1      -6.125  -2.930  33.578  0.00  0.00    -0.000 C 
ATOM     13  C   UNL     1      -6.139  -1.739  32.858  0.00  0.00    +0.000 C 
ATOM     14  C   UNL     1      -5.352  -1.567  31.773  0.00  0.00    -0.000 C 
ENDROOT
BRANCH   1  15
ATOM     15  C   UNL     1      -1.699  -6.902  31.127  0.00  0.00    +0.133 C 
ATOM     16  C   UNL     1      -0.223  -7.072  31.497  0.00  0.00    +0.037 C 
BRANCH  15  17
ATOM     17  O   UNL     1      -2.584  -7.157  32.077  0.00  0.00    -0.380 OA
ATOM     18  H   UNL     1      -3.479  -7.017  31.731  0.00  0.00    +0.211 HD
ENDBRANCH  15  17
ENDBRANCH   1  15
TORSDOF 2
