REMARK  Name = =
REMARK  1 active torsions:
REMARK  status: ('A' for Active; 'I' for Inactive)
REMARK    1  A    between atoms: C_3  and  C_7
REMARK                            x       y       z     vdW  Elec       q    Type
REMARK                         _______ _______ _______ _____ _____    ______ ____
ROOT
ATOM      1  C   UNL     1      -4.004  -3.945  30.698  0.00  0.00    +0.003 C 
ATOM      2  C   UNL     1      -4.308  -4.648  31.835  0.00  0.00    +0.019 C 
ATOM      3  C   UNL     1      -3.592  -5.803  32.186  0.00  0.00    +0.082 C 
ATOM      4  N   UNL     1      -2.602  -6.174  31.348  0.00  0.00    -0.244 NA
ATOM      5  C   UNL     1      -2.273  -5.516  30.226  0.00  0.00    +0.099 C 
ATOM      6  C   UNL     1      -2.987  -4.362  29.876  0.00  0.00    +0.021 C 
ENDROOT
BRANCH   3   7
ATOM      7  C   UNL     1      -3.917  -6.543  33.391  0.00  0.00    +0.031 C 
ATOM      8  C   UNL     1      -3.501  -7.774  33.527  0.00  0.00    +0.070 C 
ATOM      9 CL   UNL     1      -2.554  -8.622  32.328  0.00  0.00    -0.081 Cl
ENDBRANCH   3   7
TORSDOF 1
