REMARK  Name = =
REMARK  3 active torsions:
REMARK  status: ('A' for Active; 'I' for Inactive)
REMARK    1  A    between atoms: C_1  and  C_15
REMARK    2  A    between atoms: C_15  and  O_17
REMARK    3  A    between atoms: O_17  and  N_18
REMARK                            x       y       z     vdW  Elec       q    Type
REMARK                         _______ _______ _______ _____ _____    ______ ____
ROOT
ATOM      1  C   UNL     1      -2.674  -2.933  30.255  0.00  0.00    +0.007 C 
ATOM      2  C   UNL     1      -2.418  -4.261  29.906  0.00  0.00    -0.002 C 
ATOM      3  C   UNL     1      -2.474  -5.265  30.826  0.00  0.00    -0.000 C 
ATOM      4  C   UNL     1      -2.788  -4.960  32.128  0.00  0.00    -0.000 C 
ATOM      5  C   UNL     1      -3.048  -3.672  32.521  0.00  0.00    -0.000 C 
ATOM      6  C   UNL     1      -2.994  -2.657  31.593  0.00  0.00    -0.002 C 
ATOM      7  C   UNL     1      -2.197  -6.677  30.512  0.00  0.00    -0.000 C 
ATOM      8  C   UNL     1      -1.466  -6.889  29.274  0.00  0.00    -0.000 C 
ATOM      9  C   UNL     1      -1.380  -5.892  28.351  0.00  0.00    -0.000 C 
ATOM     10  C   UNL     1      -2.033  -4.560  28.517  0.00  0.00    -0.000 C 
ATOM     11  C   UNL     1      -0.654  -6.132  27.214  0.00  0.00    -0.000 C 
ATOM     12  C   UNL     1      -0.018  -7.366  27.001  0.00  0.00    -0.000 C 
ATOM     13  C   UNL     1      -0.116  -8.364  27.944  0.00  0.00    +0.000 C 
ATOM     14  C   UNL     1      -0.851  -8.088  29.071  0.00  0.00    -0.000 C 
ENDROOT
BRANCH   1  15
ATOM     15  C   UNL     1      -2.757  -1.803  29.324  0.00  0.00    +0.160 C 
ATOM     16  C   UNL     1      -1.784  -0.663  29.702  0.00  0.00    +0.039 C 
BRANCH  15  17
ATOM     17  O   UNL     1      -4.060  -1.210  29.465  0.00  0.00    -0.280 OA
BRANCH  17  18
ATOM     18  N   UNL     1      -4.241  -0.564  30.595  0.00  0.00    -0.163 NA
ATOM     19  C   UNL     1      -5.274  -1.271  31.366  0.00  0.00    +0.120 C 
ATOM     20  C   UNL     1      -6.627  -0.962  30.801  0.00  0.00    +0.109 C 
ATOM     21  N   UNL     1      -6.990   0.358  31.284  0.00  0.00    -0.215 NA
ATOM     22  C   UNL     1      -5.790   1.123  31.461  0.00  0.00    +0.109 C 
ATOM     23  C   UNL     1      -4.704   0.786  30.439  0.00  0.00    +0.120 C 
ENDBRANCH  17  18
ENDBRANCH  15  17
ENDBRANCH   1  15
TORSDOF 3
