REMARK  Name = =
REMARK  2 active torsions:
REMARK  status: ('A' for Active; 'I' for Inactive)
REMARK    1  A    between atoms: C_1  and  C_7
REMARK    2  A    between atoms: C_3  and  C_11
REMARK                            x       y       z     vdW  Elec       q    Type
REMARK                         _______ _______ _______ _____ _____    ______ ____
ROOT
ATOM      1  C   UNL     1      -4.355  -5.227  32.224  0.00  0.00    -0.019 C 
ATOM      2  C   UNL     1      -3.065  -5.496  31.813  0.00  0.00    +0.015 C 
ATOM      3  C   UNL     1      -2.310  -6.539  32.303  0.00  0.00    +0.082 C 
ATOM      4  N   UNL     1      -2.852  -7.339  33.228  0.00  0.00    -0.244 NA
ATOM      5  C   UNL     1      -4.101  -7.094  33.639  0.00  0.00    +0.099 C 
ATOM      6  C   UNL     1      -4.886  -6.067  33.177  0.00  0.00    +0.016 C 
ENDROOT
BRANCH   1   7
ATOM      7  C   UNL     1      -5.063  -4.091  31.635  0.00  0.00    +0.022 C 
ATOM      8  C   UNL     1      -5.767  -3.171  32.616  0.00  0.00    +0.004 C 
ATOM      9  C   UNL     1      -5.337  -2.019  31.699  0.00  0.00    +0.001 C 
ATOM     10  C   UNL     1      -4.163  -2.893  31.300  0.00  0.00    +0.004 C 
ENDBRANCH   1   7
BRANCH   3  11
ATOM     11  C   UNL     1      -0.942  -6.777  31.828  0.00  0.00    +0.031 C 
ATOM     12  C   UNL     1       0.056  -6.819  32.673  0.00  0.00    +0.070 C 
ATOM     13 CL   UNL     1       1.680  -7.106  32.072  0.00  0.00    -0.081 Cl
ENDBRANCH   3  11
TORSDOF 2
