REMARK  Name = =
REMARK  3 active torsions:
REMARK  status: ('A' for Active; 'I' for Inactive)
REMARK    1  A    between atoms: C_1  and  C_18
REMARK    2  A    between atoms: C_2  and  N_7
REMARK    3  A    between atoms: C_3  and  C_22
REMARK                            x       y       z     vdW  Elec       q    Type
REMARK                         _______ _______ _______ _____ _____    ______ ____
ROOT
ATOM      1  C   UNL     1       2.608  -4.658  26.914  0.00  0.00    -0.006 C 
ATOM      2  C   UNL     1       2.410  -5.305  28.089  0.00  0.00    +0.071 C 
ATOM      3  C   UNL     1       2.456  -4.616  29.304  0.00  0.00    +0.096 C 
ATOM      4  N   UNL     1       2.696  -3.300  29.382  0.00  0.00    -0.243 NA
ATOM      5  C   UNL     1       2.898  -2.618  28.244  0.00  0.00    +0.099 C 
ATOM      6  C   UNL     1       2.856  -3.279  27.033  0.00  0.00    +0.018 C 
ENDROOT
BRANCH   2   7
ATOM      7  N   UNL     1       2.158  -6.682  28.097  0.00  0.00    -0.241 N 
ATOM      8  C   UNL     1       2.882  -7.761  27.903  0.00  0.00    +0.174 C 
ATOM      9  N   UNL     1       2.162  -8.885  28.006  0.00  0.00    -0.209 NA
ATOM     10  C   UNL     1       0.895  -8.528  28.286  0.00  0.00    +0.164 A 
ATOM     11  C   UNL     1       0.909  -7.151  28.340  0.00  0.00    +0.148 A 
ATOM     12  C   UNL     1      -0.311  -6.520  28.619  0.00  0.00    +0.278 A 
ATOM     13  O   UNL     1      -0.349  -5.274  28.679  0.00  0.00    -0.266 OA
ATOM     14  N   UNL     1      -1.438  -7.212  28.825  0.00  0.00    -0.273 N 
ATOM     15  C   UNL     1      -1.391  -8.569  28.760  0.00  0.00    +0.328 A 
ATOM     16  O   UNL     1      -2.434  -9.274  28.947  0.00  0.00    -0.247 OA
ATOM     17  N   UNL     1      -0.250  -9.199  28.496  0.00  0.00    -0.291 N 
ATOM     18  H   UNL     1      -2.284  -6.748  29.020  0.00  0.00    +0.173 HD
ATOM     19  H   UNL     1      -0.244 -10.183  28.453  0.00  0.00    +0.172 HD
ENDBRANCH   2   7
BRANCH   1  20
ATOM     20  C   UNL     1       2.560  -5.336  25.685  0.00  0.00    +0.024 C 
ATOM     21  C   UNL     1       2.318  -4.652  24.374  0.00  0.00    +0.004 C 
ATOM     22  C   UNL     1       2.633  -6.024  23.801  0.00  0.00    +0.001 C 
ATOM     23  C   UNL     1       3.458  -6.285  25.082  0.00  0.00    +0.004 C 
ENDBRANCH   1  20
BRANCH   3  24
ATOM     24  C   UNL     1       2.227  -5.394  30.544  0.00  0.00    +0.033 C 
ATOM     25  C   UNL     1       2.438  -4.815  31.714  0.00  0.00    +0.070 C 
ATOM     26 CL   UNL     1       2.175  -5.710  33.189  0.00  0.00    -0.081 Cl
ENDBRANCH   3  24
TORSDOF 3
