REMARK  Name = =
REMARK  6 active torsions:
REMARK  status: ('A' for Active; 'I' for Inactive)
REMARK    1  A    between atoms: C_1  and  C_18
REMARK    2  A    between atoms: C_2  and  N_7
REMARK    3  A    between atoms: C_3  and  C_26
REMARK    4  A    between atoms: C_19  and  P_22
REMARK    5  A    between atoms: P_22  and  O_24
REMARK    6  A    between atoms: P_22  and  O_25
REMARK                            x       y       z     vdW  Elec       q    Type
REMARK                         _______ _______ _______ _____ _____    ______ ____
ROOT
ATOM      1  C   UNL     1       2.829  -4.836  28.729  0.00  0.00    -0.005 C 
ATOM      2  C   UNL     1       3.322  -5.539  27.660  0.00  0.00    +0.071 C 
ATOM      3  C   UNL     1       3.935  -4.853  26.648  0.00  0.00    +0.096 C 
ATOM      4  N   UNL     1       4.063  -3.498  26.678  0.00  0.00    -0.243 NA
ATOM      5  C   UNL     1       3.581  -2.806  27.722  0.00  0.00    +0.099 C 
ATOM      6  C   UNL     1       2.959  -3.467  28.760  0.00  0.00    +0.018 C 
ENDROOT
BRANCH   2   7
ATOM      7  N   UNL     1       3.207  -6.939  27.630  0.00  0.00    -0.241 N 
ATOM      8  C   UNL     1       4.117  -7.793  28.199  0.00  0.00    +0.174 C 
ATOM      9  N   UNL     1       3.739  -9.055  28.016  0.00  0.00    -0.209 NA
ATOM     10  C   UNL     1       2.591  -9.065  27.335  0.00  0.00    +0.164 A 
ATOM     11  C   UNL     1       2.274  -7.737  27.102  0.00  0.00    +0.148 A 
ATOM     12  C   UNL     1       1.135  -7.460  26.417  0.00  0.00    +0.278 A 
ATOM     13  O   UNL     1       0.817  -6.284  26.186  0.00  0.00    -0.266 OA
ATOM     14  N   UNL     1       0.365  -8.506  25.995  0.00  0.00    -0.273 N 
ATOM     15  C   UNL     1       0.694  -9.783  26.234  0.00  0.00    +0.328 A 
ATOM     16  O   UNL     1      -0.022 -10.758  25.842  0.00  0.00    -0.247 OA
ATOM     17  N   UNL     1       1.814 -10.093  26.909  0.00  0.00    -0.291 N 
ATOM     18  H   UNL     1      -0.462  -8.315  25.497  0.00  0.00    +0.173 HD
ATOM     19  H   UNL     1       2.061 -11.029  27.087  0.00  0.00    +0.172 HD
ENDBRANCH   2   7
BRANCH   1  20
ATOM     20  C   UNL     1       2.160  -5.574  29.797  0.00  0.00    +0.035 C 
ATOM     21  C   UNL     1       1.922  -4.909  31.106  0.00  0.00    +0.108 C 
ATOM     22  C   UNL     1       0.447  -4.959  30.874  0.00  0.00    +0.013 C 
ATOM     23  C   UNL     1       0.645  -5.540  29.518  0.00  0.00    +0.006 C 
BRANCH  21  24
ATOM     24  P   UNL     1       2.366  -5.928  32.547  0.00  0.00    +0.337 P 
ATOM     25  O   UNL     1       2.265  -7.395  32.246  0.00  0.00    -0.258 OA
BRANCH  24  26
ATOM     26  O   UNL     1       1.326  -5.534  33.815  0.00  0.00    -0.324 OA
ATOM     27  H   UNL     1       1.394  -4.586  34.006  0.00  0.00    +0.220 HD
ENDBRANCH  24  26
BRANCH  24  28
ATOM     28  O   UNL     1       3.945  -5.549  33.039  0.00  0.00    -0.324 OA
ATOM     29  H   UNL     1       4.005  -4.600  33.232  0.00  0.00    +0.220 HD
ENDBRANCH  24  28
ENDBRANCH  21  24
ENDBRANCH   1  20
BRANCH   3  30
ATOM     30  C   UNL     1       4.492  -5.531  25.499  0.00  0.00    +0.033 C 
ATOM     31  C   UNL     1       5.079  -4.897  24.508  0.00  0.00    +0.070 C 
ATOM     32 CL   UNL     1       5.206  -3.135  24.551  0.00  0.00    -0.081 Cl
ENDBRANCH   3  30
TORSDOF 6
