REMARK  Name = =
REMARK  5 active torsions:
REMARK  status: ('A' for Active; 'I' for Inactive)
REMARK    1  A    between atoms: C_1  and  C_20
REMARK    2  A    between atoms: C_13  and  N_15
REMARK    3  A    between atoms: C_20  and  O_22
REMARK    4  A    between atoms: O_22  and  N_23
REMARK    5  A    between atoms: C_24  and  C_30
REMARK                            x       y       z     vdW  Elec       q    Type
REMARK                         _______ _______ _______ _____ _____    ______ ____
ROOT
ATOM      1  C   UNL     1       3.356  -7.147  26.152  0.00  0.00    +0.003 C 
ATOM      2  C   UNL     1       2.161  -7.698  26.562  0.00  0.00    -0.023 C 
ATOM      3  C   UNL     1       2.153  -8.925  27.215  0.00  0.00    -0.022 C 
ATOM      4  C   UNL     1       3.292  -9.607  27.446  0.00  0.00    -0.004 C 
ATOM      5  C   UNL     1       4.527  -9.071  27.031  0.00  0.00    -0.001 C 
ATOM      6  C   UNL     1       4.562  -7.846  26.390  0.00  0.00    -0.002 C 
ATOM      7  C   UNL     1       0.857  -9.367  27.847  0.00  0.00    +0.052 C 
ATOM      8  C   UNL     1       0.180  -8.148  28.377  0.00  0.00    -0.020 C 
ATOM      9  C   UNL     1       0.135  -7.005  27.617  0.00  0.00    -0.021 C 
ATOM     10  C   UNL     1       0.884  -7.030  26.319  0.00  0.00    +0.052 C 
ATOM     11  C   UNL     1      -0.509  -5.865  28.003  0.00  0.00    -0.003 C 
ATOM     12  C   UNL     1      -1.146  -5.833  29.203  0.00  0.00    +0.014 C 
ATOM     13  C   UNL     1      -1.135  -6.980  30.031  0.00  0.00    +0.048 C 
ATOM     14  C   UNL     1      -0.453  -8.124  29.575  0.00  0.00    +0.010 C 
ENDROOT
BRANCH  13  15
ATOM     15  N   UNL     1      -1.815  -6.852  31.253  0.00  0.00    -0.307 N 
ATOM     16  C   UNL     1      -3.162  -6.269  31.371  0.00  0.00    +0.091 C 
ATOM     17  C   UNL     1      -3.578  -6.426  32.792  0.00  0.00    +0.023 C 
ATOM     18  C   UNL     1      -2.628  -7.451  33.338  0.00  0.00    +0.023 C 
ATOM     19  C   UNL     1      -1.353  -7.183  32.585  0.00  0.00    +0.091 C 
ENDBRANCH  13  15
BRANCH   1  20
ATOM     20  C   UNL     1       3.419  -5.835  25.474  0.00  0.00    +0.160 C 
ATOM     21  C   UNL     1       2.025  -5.887  24.670  0.00  0.00    +0.039 C 
BRANCH  20  22
ATOM     22  O   UNL     1       3.152  -4.725  26.288  0.00  0.00    -0.280 OA
BRANCH  22  23
ATOM     23  N   UNL     1       3.333  -3.530  25.814  0.00  0.00    -0.159 NA
ATOM     24  C   UNL     1       2.065  -2.976  25.336  0.00  0.00    +0.133 C 
ATOM     25  C   UNL     1       2.241  -1.665  24.598  0.00  0.00    +0.173 C 
ATOM     26 CL   UNL     1       3.048  -0.415  25.523  0.00  0.00    -0.094 Cl
ATOM     27  N   UNL     1       2.906  -1.857  23.359  0.00  0.00    -0.200 NA
ATOM     28  C   UNL     1       3.675  -3.099  23.392  0.00  0.00    +0.110 C 
ATOM     29  C   UNL     1       4.280  -3.286  24.786  0.00  0.00    +0.120 C 
BRANCH  24  30
ATOM     30  C   UNL     1       1.114  -2.700  26.467  0.00  0.00    -0.029 C 
ATOM     31  C   UNL     1      -0.165  -2.680  26.297  0.00  0.00    -0.033 C 
ATOM     32  C   UNL     1      -1.202  -2.411  27.350  0.00  0.00    +0.025 C 
ATOM     33  C   UNL     1      -0.555  -1.958  28.634  0.00  0.00    +0.005 C 
ATOM     34  C   UNL     1       0.721  -2.781  28.891  0.00  0.00    +0.005 C 
ATOM     35  C   UNL     1       1.688  -2.396  27.789  0.00  0.00    +0.023 C 
ENDBRANCH  24  30
ENDBRANCH  22  23
ENDBRANCH  20  22
ENDBRANCH   1  20
TORSDOF 5
