REMARK  Name = =
REMARK  11 active torsions:
REMARK  status: ('A' for Active; 'I' for Inactive)
REMARK    1  A    between atoms: S_1  and  N_10
REMARK    2  A    between atoms: C_5  and  N_15
REMARK    3  A    between atoms: C_6  and  N_18
REMARK    4  A    between atoms: C_7  and  C_25
REMARK    5  A    between atoms: N_13  and  O_14
REMARK    6  A    between atoms: N_18  and  O_21
REMARK    7  A    between atoms: O_21  and  C_22
REMARK    8  A    between atoms: C_22  and  O_24
REMARK    9  A    between atoms: N_26  and  O_27
REMARK   10  A    between atoms: O_27  and  C_28
REMARK   11  A    between atoms: N_33  and  N_35
REMARK                            x       y       z     vdW  Elec       q    Type
REMARK                         _______ _______ _______ _____ _____    ______ ____
ROOT
ATOM      1  S   UNL     1       1.536  -8.386  26.977  0.00  0.00    -0.055 S 
ATOM      2  N   UNL     1       2.640  -7.420  28.236  0.00  0.00    -0.215 NA
ATOM      3  C   UNL     1       3.294  -6.634  27.530  0.00  0.00    +0.109 C 
ATOM      4  C   UNL     1       3.162  -6.570  26.126  0.00  0.00    +0.041 C 
ATOM      5  C   UNL     1       3.848  -5.763  25.170  0.00  0.00    +0.067 C 
ATOM      6  C   UNL     1       3.577  -5.919  23.839  0.00  0.00    +0.108 C 
ATOM      7  C   UNL     1       2.639  -6.848  23.355  0.00  0.00    +0.041 C 
ATOM      8  C   UNL     1       1.979  -7.617  24.266  0.00  0.00    +0.011 C 
ATOM      9  C   UNL     1       2.262  -7.453  25.610  0.00  0.00    +0.042 C 
ATOM     10  H   UNL     1       1.512  -9.742  26.880  0.00  0.00    +0.129 HD
ENDROOT
BRANCH   1  11
ATOM     11  N   UNL     1      -0.141  -7.959  27.321  0.00  0.00    -0.241 N 
ATOM     12  C   UNL     1      -0.856  -8.688  28.289  0.00  0.00    +0.332 C 
ATOM     13  O   UNL     1      -0.285  -9.633  28.892  0.00  0.00    -0.250 OA
ATOM     14  N   UNL     1      -2.208  -8.402  28.618  0.00  0.00    -0.181 N 
ATOM     15  H   UNL     1      -0.573  -7.217  26.840  0.00  0.00    +0.164 HD
ATOM     16  H   UNL     1      -2.653  -7.663  28.143  0.00  0.00    +0.184 HD
BRANCH  14  17
ATOM     17  O   UNL     1      -2.911  -9.072  29.529  0.00  0.00    -0.294 OA
ATOM     18  H   UNL     1      -2.357  -9.768  29.917  0.00  0.00    +0.241 HD
ENDBRANCH  14  17
ENDBRANCH   1  11
BRANCH   5  19
ATOM     19  N   UNL     1       4.693  -4.692  25.600  0.00  0.00    -0.303 N 
ATOM     20  C   UNL     1       6.105  -4.818  25.895  0.00  0.00    +0.112 C 
ATOM     21  C   UNL     1       4.213  -3.286  25.648  0.00  0.00    +0.112 C 
ENDBRANCH   5  19
BRANCH   6  22
ATOM     22  N   UNL     1       4.173  -5.170  22.808  0.00  0.00    -0.085 N 
ATOM     23  C   UNL     1       3.491  -4.069  22.249  0.00  0.00    +0.341 C 
ATOM     24  O   UNL     1       3.954  -3.351  21.328  0.00  0.00    -0.261 OA
BRANCH  22  25
ATOM     25  O   UNL     1       5.437  -5.493  22.391  0.00  0.00    -0.306 OA
BRANCH  25  26
ATOM     26  C   UNL     1       6.445  -4.592  22.165  0.00  0.00    +0.531 C 
ATOM     27  O   UNL     1       6.766  -3.793  23.054  0.00  0.00    -0.201 OA
BRANCH  26  28
ATOM     28  O   UNL     1       7.115  -4.559  20.949  0.00  0.00    -0.448 OA
ATOM     29  H   UNL     1       7.802  -3.937  20.809  0.00  0.00    +0.299 HD
ENDBRANCH  26  28
ENDBRANCH  25  26
ENDBRANCH  22  25
ENDBRANCH   6  22
BRANCH   7  30
ATOM     30  C   UNL     1       2.344  -6.996  21.936  0.00  0.00    +0.142 C 
ATOM     31  N   UNL     1       1.162  -6.866  21.513  0.00  0.00    -0.070 NA
BRANCH  31  32
ATOM     32  O   UNL     1       0.705  -6.967  20.244  0.00  0.00    -0.296 OA
BRANCH  32  33
ATOM     33  C   UNL     1      -0.016  -5.943  19.608  0.00  0.00    +0.464 C 
ATOM     34  O   UNL     1       0.650  -4.950  19.268  0.00  0.00    -0.221 OA
ATOM     35  N   UNL     1      -1.403  -6.054  19.379  0.00  0.00    -0.016 N 
ATOM     36  C   UNL     1      -2.239  -5.107  18.757  0.00  0.00    +0.355 C 
ATOM     37  O   UNL     1      -3.493  -5.347  18.618  0.00  0.00    -0.248 OA
ATOM     38  N   UNL     1      -1.820  -3.853  18.242  0.00  0.00    -0.215 N 
ATOM     39  F   UNL     1      -2.031  -7.206  19.803  0.00  0.00    -0.094 F 
ATOM     40  H   UNL     1      -0.874  -3.588  18.306  0.00  0.00    +0.175 HD
BRANCH  38  41
ATOM     41  N   UNL     1      -2.752  -2.985  17.639  0.00  0.00    -0.217 N 
ATOM     42  C   UNL     1      -3.046  -1.732  18.226  0.00  0.00    +0.313 C 
ATOM     43  O   UNL     1      -2.453  -1.406  19.307  0.00  0.00    -0.252 OA
ATOM     44  N   UNL     1      -3.981  -0.850  17.631  0.00  0.00    -0.312 N 
ATOM     45  H   UNL     1      -3.201  -3.252  16.805  0.00  0.00    +0.174 HD
ATOM     46  H   UNL     1      -4.437  -1.105  16.796  0.00  0.00    +0.147 HD
ATOM     47  H   UNL     1      -4.175   0.019  18.052  0.00  0.00    +0.147 HD
ENDBRANCH  38  41
ENDBRANCH  32  33
ENDBRANCH  31  32
ENDBRANCH   7  30
TORSDOF 11
