MODEL 1
REMARK VINA RESULT:    -8.091      0.000      0.000
REMARK INTER + INTRA:         -11.089
REMARK INTER:                  -9.982
REMARK INTRA:                  -1.107
REMARK UNBOUND:                -1.107
REMARK  Name = =
REMARK  4 active torsions:
REMARK  status: ('A' for Active; 'I' for Inactive)
REMARK    1  A    between atoms: C_1  and  O_20
REMARK    2  A    between atoms: C_6  and  C_11
REMARK    3  A    between atoms: O_20  and  N_21
REMARK    4  A    between atoms: N_21  and  C_22
REMARK                            x       y       z     vdW  Elec       q    Type
REMARK                         _______ _______ _______ _____ _____    ______ ____
ROOT
ATOM      1  C   UNL     1      51.540 163.696  41.661  0.00  0.00    +0.164 C 
ATOM      2  C   UNL     1      50.450 162.824  41.624  0.00  0.00    +0.039 C 
ATOM      3  C   UNL     1      49.207 163.263  41.222  0.00  0.00    +0.003 C 
ATOM      4  C   UNL     1      49.077 164.585  40.858  0.00  0.00    -0.000 C 
ATOM      5  C   UNL     1      50.154 165.440  40.897  0.00  0.00    -0.001 C 
ATOM      6  C   UNL     1      51.406 165.020  41.297  0.00  0.00    +0.024 C 
ATOM      7  C   UNL     1      47.848 165.057  40.452  0.00  0.00    -0.000 C 
ATOM      8  C   UNL     1      46.761 164.209  40.409  0.00  0.00    -0.000 C 
ATOM      9  C   UNL     1      46.883 162.891  40.770  0.00  0.00    +0.000 C 
ATOM     10  C   UNL     1      48.109 162.411  41.179  0.00  0.00    +0.000 C 
ENDROOT
BRANCH   6  11
ATOM     11  C   UNL     1      52.569 165.972  41.330  0.00  0.00    +0.121 C 
ATOM     12  C   UNL     1      52.075 167.373  41.292  0.00  0.00    +0.093 C 
ATOM     13  N   UNL     1      52.748 167.481  39.990  0.00  0.00    -0.258 N 
ATOM     14  C   UNL     1      52.722 168.775  39.402  0.00  0.00    +0.063 C 
ATOM     15  C   UNL     1      52.769 169.854  40.150  0.00  0.00    -0.010 C 
ATOM     16  C   UNL     1      52.848 169.753  41.615  0.00  0.00    +0.029 C 
ATOM     17  C   UNL     1      52.751 168.367  42.172  0.00  0.00    +0.026 C 
ATOM     18  C   UNL     1      53.121 166.113  39.966  0.00  0.00    +0.235 C 
ATOM     19  O   UNL     1      53.677 165.349  39.152  0.00  0.00    -0.274 OA
ENDBRANCH   6  11
BRANCH   1  20
ATOM     20  O   UNL     1      52.805 163.250  42.070  0.00  0.00    -0.385 OA
BRANCH  20  21
ATOM     21  N   UNL     1      53.139 161.940  41.823  0.00  0.00    -0.028 NA
BRANCH  21  22
ATOM     22  C   UNL     1      54.374 161.813  41.101  0.00  0.00    +0.133 C 
ATOM     23  C   UNL     1      55.060 160.545  41.631  0.00  0.00    +0.038 C 
ATOM     24  C   UNL     1      55.550 161.118  42.973  0.00  0.00    +0.074 C 
ATOM     25  N   UNL     1      56.306 162.257  42.417  0.00  0.00    -0.271 NA
ATOM     26  C   UNL     1      55.378 162.873  41.490  0.00  0.00    +0.093 C 
ATOM     27  C   UNL     1      57.278 161.516  41.606  0.00  0.00    +0.072 C 
ATOM     28  C   UNL     1      56.401 160.505  40.881  0.00  0.00    +0.020 C 
ENDBRANCH  21  22
ENDBRANCH  20  21
ENDBRANCH   1  20
TORSDOF 4
ENDMDL
