REMARK  Name = =
REMARK  4 active torsions:
REMARK  status: ('A' for Active; 'I' for Inactive)
REMARK    1  A    between atoms: C_1  and  O_20
REMARK    2  A    between atoms: C_6  and  C_11
REMARK    3  A    between atoms: O_20  and  N_21
REMARK    4  A    between atoms: N_21  and  C_22
REMARK                            x       y       z     vdW  Elec       q    Type
REMARK                         _______ _______ _______ _____ _____    ______ ____
ROOT
ATOM      1  C   UNL     1      58.049 163.312  40.912  0.00  0.00    +0.164 C 
ATOM      2  C   UNL     1      57.489 162.187  41.521  0.00  0.00    +0.039 C 
ATOM      3  C   UNL     1      58.039 160.937  41.339  0.00  0.00    +0.003 C 
ATOM      4  C   UNL     1      59.156 160.835  40.539  0.00  0.00    -0.000 C 
ATOM      5  C   UNL     1      59.703 161.946  39.941  0.00  0.00    -0.001 C 
ATOM      6  C   UNL     1      59.167 163.206  40.111  0.00  0.00    +0.024 C 
ATOM      7  C   UNL     1      59.731 159.599  40.335  0.00  0.00    -0.000 C 
ATOM      8  C   UNL     1      59.191 158.478  40.930  0.00  0.00    -0.000 C 
ATOM      9  C   UNL     1      58.078 158.572  41.728  0.00  0.00    +0.000 C 
ATOM     10  C   UNL     1      57.496 159.805  41.936  0.00  0.00    +0.000 C 
ENDROOT
BRANCH   6  11
ATOM     11  C   UNL     1      59.783 164.406  39.448  0.00  0.00    +0.121 C 
ATOM     12  C   UNL     1      60.573 163.978  38.264  0.00  0.00    +0.093 C 
ATOM     13  N   UNL     1      61.754 164.472  38.986  0.00  0.00    -0.258 N 
ATOM     14  C   UNL     1      62.972 164.428  38.253  0.00  0.00    +0.063 C 
ATOM     15  C   UNL     1      62.983 164.627  36.955  0.00  0.00    -0.010 C 
ATOM     16  C   UNL     1      61.736 164.900  36.223  0.00  0.00    +0.029 C 
ATOM     17  C   UNL     1      60.481 164.814  37.034  0.00  0.00    +0.026 C 
ATOM     18  C   UNL     1      61.023 164.774  40.163  0.00  0.00    +0.235 C 
ATOM     19  O   UNL     1      61.297 165.177  41.311  0.00  0.00    -0.274 OA
ENDBRANCH   6  11
BRANCH   1  20
ATOM     20  O   UNL     1      57.489 164.584  41.097  0.00  0.00    -0.385 OA
BRANCH  20  21
ATOM     21  N   UNL     1      56.723 164.796  42.218  0.00  0.00    -0.028 NA
BRANCH  21  22
ATOM     22  C   UNL     1      56.353 166.174  42.381  0.00  0.00    +0.133 C 
ATOM     23  C   UNL     1      54.923 166.177  42.944  0.00  0.00    +0.038 C 
ATOM     24  C   UNL     1      54.185 165.816  41.642  0.00  0.00    +0.074 C 
ATOM     25  N   UNL     1      54.718 166.920  40.821  0.00  0.00    -0.271 NA
ATOM     26  C   UNL     1      56.147 166.873  41.057  0.00  0.00    +0.093 C 
ATOM     27  C   UNL     1      54.203 168.055  41.595  0.00  0.00    +0.072 C 
ATOM     28  C   UNL     1      54.558 167.668  43.024  0.00  0.00    +0.020 C 
ENDBRANCH  21  22
ENDBRANCH  20  21
ENDBRANCH   1  20
TORSDOF 4
