REMARK  Name = =
REMARK  7 active torsions:
REMARK  status: ('A' for Active; 'I' for Inactive)
REMARK    1  A    between atoms: C_1  and  C_7
REMARK    2  A    between atoms: C_2  and  C_15
REMARK    3  A    between atoms: C_6  and  C_12
REMARK    4  A    between atoms: C_7  and  O_9
REMARK    5  A    between atoms: O_9  and  C_10
REMARK    6  A    between atoms: C_12  and  O_14
REMARK    7  A    between atoms: C_15  and  O_17
REMARK                            x       y       z     vdW  Elec       q    Type
REMARK                         _______ _______ _______ _____ _____    ______ ____
ROOT
ATOM      1  C   UNL     1      -1.860  -4.863  31.036  0.00  0.00    +0.087 C 
ATOM      2  C   UNL     1      -3.330  -4.818  31.120  0.00  0.00    +0.079 C 
ATOM      3  C   UNL     1      -4.030  -5.926  30.990  0.00  0.00    +0.121 C 
ATOM      4  N   UNL     1      -3.443  -7.187  30.768  0.00  0.00    -0.328 N 
ATOM      5  C   UNL     1      -2.034  -7.288  30.677  0.00  0.00    +0.065 C 
ATOM      6  C   UNL     1      -1.308  -6.194  30.804  0.00  0.00    +0.096 C 
ATOM      7  H   UNL     1      -4.006  -7.989  30.677  0.00  0.00    +0.147 HD
ENDROOT
BRANCH   1   8
ATOM      8  C   UNL     1      -1.510  -3.926  29.899  0.00  0.00    +0.348 C 
ATOM      9  O   UNL     1      -0.701  -2.976  30.039  0.00  0.00    -0.244 OA
BRANCH   8  10
ATOM     10  O   UNL     1      -2.079  -4.082  28.642  0.00  0.00    -0.381 OA
BRANCH  10  11
ATOM     11  C   UNL     1      -2.435  -2.966  27.887  0.00  0.00    +0.425 C 
ATOM     12  O   UNL     1      -2.550  -1.825  28.417  0.00  0.00    -0.237 OA
ENDBRANCH  10  11
ENDBRANCH   8  10
ENDBRANCH   1   8
BRANCH   6  13
ATOM     13  C   UNL     1       0.162  -6.333  30.706  0.00  0.00    +0.339 C 
ATOM     14  O   UNL     1       0.731  -7.186  31.422  0.00  0.00    -0.245 OA
BRANCH  13  15
ATOM     15  O   UNL     1       0.881  -5.523  29.830  0.00  0.00    -0.477 OA
ATOM     16  H   UNL     1       0.434  -4.890  29.303  0.00  0.00    +0.295 HD
ENDBRANCH  13  15
ENDBRANCH   6  13
BRANCH   2  17
ATOM     17  C   UNL     1      -4.028  -3.527  31.353  0.00  0.00    +0.336 C 
ATOM     18  O   UNL     1      -3.599  -2.807  32.272  0.00  0.00    -0.245 OA
BRANCH  17  19
ATOM     19  O   UNL     1      -5.101  -3.102  30.618  0.00  0.00    -0.477 OA
ATOM     20  H   UNL     1      -5.434  -3.635  29.923  0.00  0.00    +0.295 HD
ENDBRANCH  17  19
ENDBRANCH   2  17
TORSDOF 7
