REMARK  Name = =
REMARK  0 active torsions:
REMARK  status: ('A' for Active; 'I' for Inactive)
REMARK                            x       y       z     vdW  Elec       q    Type
REMARK                         _______ _______ _______ _____ _____    ______ ____
ROOT
ATOM      1  N   UNL     1      52.314 156.024  29.038  0.00  0.00    -0.297 NA
ATOM      2  C   UNL     1      52.652 154.694  28.615  0.00  0.00    +0.069 C 
ATOM      3  C   UNL     1      52.498 154.462  27.146  0.00  0.00    +0.017 C 
ATOM      4  C   UNL     1      53.000 155.586  26.297  0.00  0.00    +0.003 C 
ATOM      5  C   UNL     1      52.620 156.947  26.815  0.00  0.00    +0.017 C 
ATOM      6  C   UNL     1      52.972 157.053  28.280  0.00  0.00    +0.069 C 
ATOM      7  H   UNL     1      52.577 156.127  30.018  0.00  0.00    +0.123 HD
ENDROOT
TORSDOF 0
