REMARK  Name = =
REMARK  1 active torsions:
REMARK  status: ('A' for Active; 'I' for Inactive)
REMARK    1  A    between atoms: C_1  and  N_19
REMARK                            x       y       z     vdW  Elec       q    Type
REMARK                         _______ _______ _______ _____ _____    ______ ____
ROOT
ATOM      1  C   UNL     1      52.331 161.185  31.793  0.00  0.00    +0.058 C 
ATOM      2  C   UNL     1      51.200 162.180  31.883  0.00  0.00    +0.016 C 
ATOM      3  C   UNL     1      50.170 161.636  32.842  0.00  0.00    +0.001 C 
ATOM      4  C   UNL     1      48.770 162.053  32.465  0.00  0.00    +0.001 C 
ATOM      5  C   UNL     1      48.334 161.544  31.125  0.00  0.00    +0.016 C 
ATOM      6  C   UNL     1      47.563 162.619  30.432  0.00  0.00    +0.062 C 
ATOM      7  C   UNL     1      46.293 162.256  29.824  0.00  0.00    +0.139 C 
ATOM      8  O   UNL     1      45.754 163.489  30.259  0.00  0.00    -0.352 OA
ATOM      9  C   UNL     1      46.726 163.514  31.281  0.00  0.00    +0.145 C 
ATOM     10  C   UNL     1      45.522 161.133  30.376  0.00  0.00    -0.001 C 
ATOM     11  C   UNL     1      46.268 160.112  31.142  0.00  0.00    -0.021 C 
ATOM     12  C   UNL     1      47.728 160.223  31.079  0.00  0.00    +0.079 C 
ATOM     13  C   UNL     1      48.472 159.114  30.528  0.00  0.00    +0.154 C 
ATOM     14  O   UNL     1      47.894 158.412  29.758  0.00  0.00    -0.296 OA
ATOM     15  C   UNL     1      49.899 158.650  30.746  0.00  0.00    +0.065 C 
ATOM     16  C   UNL     1      50.596 159.562  31.676  0.00  0.00    +0.009 C 
ATOM     17  C   UNL     1      51.747 159.954  31.153  0.00  0.00    +0.016 C 
ATOM     18  C   UNL     1      50.274 160.135  33.015  0.00  0.00    +0.001 C 
ENDROOT
BRANCH   1  19
ATOM     19  N   UNL     1      53.457 161.653  31.061  0.00  0.00    -0.274 NA
ATOM     20  C   UNL     1      54.658 161.803  31.776  0.00  0.00    +0.072 C 
ATOM     21  C   UNL     1      55.809 161.791  30.784  0.00  0.00    +0.017 C 
ATOM     22  C   UNL     1      55.701 163.037  29.957  0.00  0.00    +0.003 C 
ATOM     23  C   UNL     1      54.311 163.442  29.604  0.00  0.00    +0.017 C 
ATOM     24  C   UNL     1      53.252 162.416  29.911  0.00  0.00    +0.072 C 
ENDBRANCH   1  19
TORSDOF 1
