REMARK  Name = =
REMARK  3 active torsions:
REMARK  status: ('A' for Active; 'I' for Inactive)
REMARK    1  A    between atoms: C_1  and  N_19
REMARK    2  A    between atoms: C_9  and  C_25
REMARK    3  A    between atoms: N_26  and  N_27
REMARK                            x       y       z     vdW  Elec       q    Type
REMARK                         _______ _______ _______ _____ _____    ______ ____
ROOT
ATOM      1  C   UNL     1      53.408 162.290  31.654  0.00  0.00    +0.058 C 
ATOM      2  C   UNL     1      52.359 162.993  30.827  0.00  0.00    +0.016 C 
ATOM      3  C   UNL     1      50.961 162.664  31.338  0.00  0.00    +0.001 C 
ATOM      4  C   UNL     1      50.029 162.429  30.182  0.00  0.00    +0.001 C 
ATOM      5  C   UNL     1      49.123 161.287  30.240  0.00  0.00    +0.012 C 
ATOM      6  C   UNL     1      48.034 161.295  31.197  0.00  0.00    +0.061 C 
ATOM      7  C   UNL     1      47.492 159.938  31.520  0.00  0.00    +0.123 C 
ATOM      8  O   UNL     1      46.271 160.553  31.811  0.00  0.00    -0.353 OA
ATOM      9  C   UNL     1      46.620 161.510  30.823  0.00  0.00    +0.155 C 
ATOM     10  C   UNL     1      47.287 159.026  30.347  0.00  0.00    +0.030 C 
ATOM     11  C   UNL     1      48.203 159.295  29.195  0.00  0.00    +0.010 C 
ATOM     12  C   UNL     1      49.457 160.036  29.554  0.00  0.00    +0.058 C 
ATOM     13  C   UNL     1      50.343 159.086  30.280  0.00  0.00    +0.150 C 
ATOM     14  O   UNL     1      49.842 158.013  30.506  0.00  0.00    -0.296 OA
ATOM     15  C   UNL     1      51.753 159.199  30.801  0.00  0.00    +0.065 C 
ATOM     16  C   UNL     1      51.911 160.468  31.519  0.00  0.00    +0.009 C 
ATOM     17  C   UNL     1      53.203 160.821  31.475  0.00  0.00    +0.016 C 
ATOM     18  C   UNL     1      51.053 161.450  32.240  0.00  0.00    +0.001 C 
ENDROOT
BRANCH   1  19
ATOM     19  N   UNL     1      54.746 162.685  31.421  0.00  0.00    -0.274 NA
ATOM     20  C   UNL     1      55.402 163.195  32.551  0.00  0.00    +0.072 C 
ATOM     21  C   UNL     1      56.709 162.550  32.899  0.00  0.00    +0.017 C 
ATOM     22  C   UNL     1      56.729 161.123  32.422  0.00  0.00    +0.003 C 
ATOM     23  C   UNL     1      56.605 161.154  30.921  0.00  0.00    +0.017 C 
ATOM     24  C   UNL     1      55.467 161.993  30.446  0.00  0.00    +0.072 C 
ENDBRANCH   1  19
BRANCH   9  25
ATOM     25  C   UNL     1      45.984 162.793  31.241  0.00  0.00    +0.120 C 
ATOM     26  N   UNL     1      45.124 163.419  30.533  0.00  0.00    -0.179 NA
BRANCH  26  27
ATOM     27  N   UNL     1      44.608 163.104  29.309  0.00  0.00    -0.191 N 
ATOM     28  C   UNL     1      43.223 163.086  29.034  0.00  0.00    +0.317 C 
ATOM     29  O   UNL     1      42.375 163.371  29.938  0.00  0.00    -0.251 OA
ATOM     30  N   UNL     1      42.727 162.755  27.766  0.00  0.00    -0.312 N 
ATOM     31  H   UNL     1      45.232 162.878  28.582  0.00  0.00    +0.179 HD
ATOM     32  H   UNL     1      43.349 162.528  27.038  0.00  0.00    +0.147 HD
ATOM     33  H   UNL     1      41.756 162.750  27.603  0.00  0.00    +0.147 HD
ENDBRANCH  26  27
ENDBRANCH   9  25
TORSDOF 3
