REMARK  Name = =
REMARK  4 active torsions:
REMARK  status: ('A' for Active; 'I' for Inactive)
REMARK    1  A    between atoms: C_1  and  C_19
REMARK    2  A    between atoms: C_1  and  N_36
REMARK    3  A    between atoms: C_9  and  C_42
REMARK    4  A    between atoms: N_43  and  N_44
REMARK                            x       y       z     vdW  Elec       q    Type
REMARK                         _______ _______ _______ _____ _____    ______ ____
ROOT
ATOM      1  C   UNL     1      50.033 159.136  30.163  0.00  0.00    +0.050 C 
ATOM      2  C   UNL     1      51.059 158.898  29.064  0.00  0.00    +0.015 C 
ATOM      3  C   UNL     1      52.282 158.138  29.604  0.00  0.00    +0.001 C 
ATOM      4  C   UNL     1      52.985 157.590  28.342  0.00  0.00    +0.001 C 
ATOM      5  C   UNL     1      52.716 156.115  28.170  0.00  0.00    +0.012 C 
ATOM      6  C   UNL     1      53.934 155.477  27.619  0.00  0.00    +0.061 C 
ATOM      7  C   UNL     1      53.995 155.343  26.155  0.00  0.00    +0.118 C 
ATOM      8  O   UNL     1      54.193 153.993  26.280  0.00  0.00    -0.352 OA
ATOM      9  C   UNL     1      54.087 154.009  27.690  0.00  0.00    +0.160 C 
ATOM     10  C   UNL     1      52.858 155.839  25.377  0.00  0.00    +0.030 C 
ATOM     11  C   UNL     1      51.509 155.704  26.000  0.00  0.00    +0.010 C 
ATOM     12  C   UNL     1      51.465 155.884  27.455  0.00  0.00    +0.058 C 
ATOM     13  C   UNL     1      50.376 155.254  28.171  0.00  0.00    +0.150 C 
ATOM     14  O   UNL     1      49.819 154.308  27.673  0.00  0.00    -0.296 OA
ATOM     15  C   UNL     1      49.735 155.554  29.520  0.00  0.00    +0.065 C 
ATOM     16  C   UNL     1      50.441 156.710  30.131  0.00  0.00    +0.009 C 
ATOM     17  C   UNL     1      49.593 157.684  30.369  0.00  0.00    +0.015 C 
ATOM     18  C   UNL     1      51.877 156.942  30.450  0.00  0.00    +0.001 C 
ENDROOT
BRANCH   1  19
ATOM     19  C   UNL     1      50.632 159.682  31.368  0.00  0.00    +0.046 C 
ATOM     20  C   UNL     1      51.825 160.589  31.138  0.00  0.00    -0.021 C 
ATOM     21  C   UNL     1      52.402 161.165  32.267  0.00  0.00    -0.023 C 
ATOM     22  C   UNL     1      51.917 160.944  33.661  0.00  0.00    +0.030 C 
ATOM     23  C   UNL     1      50.780 160.004  33.730  0.00  0.00    +0.059 C 
ATOM     24  C   UNL     1      49.949 160.294  32.461  0.00  0.00    +0.108 C 
ATOM     25  C   UNL     1      48.620 160.345  32.840  0.00  0.00    +0.317 C 
ATOM     26  O   UNL     1      47.584 160.759  32.296  0.00  0.00    -0.250 OA
ATOM     27  O   UNL     1      48.559 159.779  34.140  0.00  0.00    -0.448 OA
ATOM     28  C   UNL     1      49.795 160.137  34.803  0.00  0.00    +0.209 C 
ATOM     29  C   UNL     1      53.492 162.005  32.153  0.00  0.00    +0.036 C 
ATOM     30  C   UNL     1      54.031 162.294  30.939  0.00  0.00    +0.176 C 
ATOM     31  C   UNL     1      53.472 161.736  29.829  0.00  0.00    +0.176 C 
ATOM     32  C   UNL     1      52.375 160.891  29.952  0.00  0.00    +0.036 C 
ATOM     33  O   UNL     1      54.216 162.199  28.750  0.00  0.00    -0.435 OA
ATOM     34  C   UNL     1      55.103 163.224  29.157  0.00  0.00    +0.429 C 
ATOM     35  O   UNL     1      55.109 163.097  30.561  0.00  0.00    -0.435 OA
ENDBRANCH   1  19
BRANCH   1  36
ATOM     36  N   UNL     1      48.883 159.788  29.629  0.00  0.00    -0.275 NA
ATOM     37  C   UNL     1      47.640 159.337  30.116  0.00  0.00    +0.072 C 
ATOM     38  C   UNL     1      46.547 160.226  29.500  0.00  0.00    +0.017 C 
ATOM     39  C   UNL     1      46.694 161.577  30.161  0.00  0.00    +0.003 C 
ATOM     40  C   UNL     1      48.067 162.093  29.874  0.00  0.00    +0.017 C 
ATOM     41  C   UNL     1      48.967 161.102  29.172  0.00  0.00    +0.072 C 
ENDBRANCH   1  36
BRANCH   9  42
ATOM     42  C   UNL     1      52.955 153.198  28.124  0.00  0.00    +0.121 C 
ATOM     43  N   UNL     1      52.622 152.123  27.451  0.00  0.00    -0.179 NA
BRANCH  43  44
ATOM     44  N   UNL     1      53.337 151.742  26.323  0.00  0.00    -0.191 N 
ATOM     45  C   UNL     1      53.270 150.481  25.718  0.00  0.00    +0.317 C 
ATOM     46  O   UNL     1      52.516 149.601  26.206  0.00  0.00    -0.251 OA
ATOM     47  N   UNL     1      54.028 150.151  24.563  0.00  0.00    -0.312 N 
ATOM     48  H   UNL     1      53.937 152.409  25.918  0.00  0.00    +0.179 HD
ATOM     49  H   UNL     1      53.954 149.253  24.166  0.00  0.00    +0.147 HD
ATOM     50  H   UNL     1      54.627 150.820  24.160  0.00  0.00    +0.147 HD
ENDBRANCH  43  44
ENDBRANCH   9  42
TORSDOF 4
