REMARK  Name = =
REMARK  2 active torsions:
REMARK  status: ('A' for Active; 'I' for Inactive)
REMARK    1  A    between atoms: C_7  and  O_19
REMARK    2  A    between atoms: C_10  and  C_12
REMARK                            x       y       z     vdW  Elec       q    Type
REMARK                         _______ _______ _______ _____ _____    ______ ____
ROOT
ATOM      1  C   UNL     1     -18.272 -34.814  30.588  0.00  0.00    +0.018 C 
ATOM      2  C   UNL     1     -17.322 -34.858  29.603  0.00  0.00    +0.072 C 
ATOM      3  N   UNL     1     -17.867 -34.749  28.393  0.00  0.00    -0.233 N 
ATOM      4  C   UNL     1     -19.217 -34.629  28.567  0.00  0.00    +0.059 C 
ATOM      5  C   UNL     1     -19.473 -34.670  29.941  0.00  0.00    +0.018 C 
ATOM      6  C   UNL     1     -20.764 -34.570  30.436  0.00  0.00    +0.038 C 
ATOM      7  C   UNL     1     -21.781 -34.431  29.528  0.00  0.00    +0.134 C 
ATOM      8  C   UNL     1     -21.580 -34.386  28.172  0.00  0.00    +0.038 C 
ATOM      9  C   UNL     1     -20.277 -34.488  27.702  0.00  0.00    +0.018 C 
ATOM     10  C   UNL     1     -17.228 -34.765  27.132  0.00  0.00    +0.257 C 
ATOM     11  O   UNL     1     -17.892 -34.630  26.051  0.00  0.00    -0.269 OA
ENDROOT
BRANCH  10  12
ATOM     12  C   UNL     1     -15.788 -34.932  26.976  0.00  0.00    +0.054 C 
ATOM     13  C   UNL     1     -14.909 -33.885  26.952  0.00  0.00    +0.005 C 
ATOM     14  C   UNL     1     -13.534 -34.061  26.782  0.00  0.00    +0.012 C 
ATOM     15  C   UNL     1     -13.025 -35.329  26.633  0.00  0.00    +0.058 C 
ATOM     16  C   UNL     1     -13.890 -36.416  26.655  0.00  0.00    +0.012 C 
ATOM     17  C   UNL     1     -15.248 -36.216  26.824  0.00  0.00    +0.005 C 
ATOM     18 CL   UNL     1     -11.297 -35.551  26.422  0.00  0.00    -0.082 Cl
ENDBRANCH  10  12
BRANCH   7  19
ATOM     19  O   UNL     1     -23.086 -34.330  30.006  0.00  0.00    -0.506 OA
ATOM     20  H   UNL     1     -23.251 -34.358  30.928  0.00  0.00    +0.292 HD
ENDBRANCH   7  19
TORSDOF 2
