MODEL 1
REMARK VINA RESULT:    -7.605      0.000      0.000
REMARK INTER + INTRA:         -11.606
REMARK INTER:                 -11.384
REMARK INTRA:                  -0.222
REMARK UNBOUND:                -0.222
REMARK  Name = =
REMARK  9 active torsions:
REMARK  status: ('A' for Active; 'I' for Inactive)
REMARK    1  A    between atoms: P_1  and  O_3
REMARK    2  A    between atoms: P_1  and  S_4
REMARK    3  A    between atoms: P_1  and  O_10
REMARK    4  A    between atoms: S_4  and  N_5
REMARK    5  A    between atoms: N_5  and  N_9
REMARK    6  A    between atoms: O_10  and  C_11
REMARK    7  A    between atoms: C_15  and  C_16
REMARK    8  A    between atoms: N_18  and  N_19
REMARK    9  A    between atoms: N_19  and  C_20
REMARK                            x       y       z     vdW  Elec       q    Type
REMARK                         _______ _______ _______ _____ _____    ______ ____
ROOT
ATOM      1  P   UNL     1      53.563 155.222  25.425  0.00  0.00    +0.243 P 
ATOM      2  S   UNL     1      54.497 156.446  24.634  0.00  0.00    +0.004 S 
ENDROOT
BRANCH   1   3
ATOM      3  O   UNL     1      52.016 155.145  24.793  0.00  0.00    -0.339 OA
ATOM      4  H   UNL     1      51.509 154.462  25.260  0.00  0.00    +0.218 HD
ENDBRANCH   1   3
BRANCH   1   5
ATOM      5  S   UNL     1      54.564 153.374  25.164  0.00  0.00    +0.026 S 
BRANCH   5   6
ATOM      6  N   UNL     1      53.795 152.296  24.072  0.00  0.00    -0.174 NA
ATOM      7  H   UNL     1      53.878 152.703  23.140  0.00  0.00    +0.159 HD
BRANCH   6  11
ATOM      8  N   UNL     1      54.303 148.659  24.799  0.00  0.00    -0.312 N 
ATOM      9  C   UNL     1      53.824 149.990  24.899  0.00  0.00    +0.311 C 
ATOM     10  O   UNL     1      53.007 150.291  25.796  0.00  0.00    -0.252 OA
ATOM     11  N   UNL     1      54.248 151.017  23.992  0.00  0.00    -0.225 N 
ATOM     12  H   UNL     1      54.947 148.420  24.094  0.00  0.00    +0.147 HD
ATOM     13  H   UNL     1      53.991 147.975  25.434  0.00  0.00    +0.147 HD
ATOM     14  H   UNL     1      54.892 150.786  23.284  0.00  0.00    +0.171 HD
ENDBRANCH   6  11
ENDBRANCH   5   6
ENDBRANCH   1   5
BRANCH   1  15
ATOM     15  O   UNL     1      53.575 155.578  27.086  0.00  0.00    -0.311 OA
BRANCH  15  16
ATOM     16  C   UNL     1      52.283 155.805  27.574  0.00  0.00    +0.131 C 
ATOM     17  C   UNL     1      51.668 154.385  27.873  0.00  0.00    +0.031 C 
ATOM     18  C   UNL     1      50.546 154.716  28.806  0.00  0.00    +0.003 C 
ATOM     19  C   UNL     1      50.844 156.074  29.405  0.00  0.00    +0.012 C 
ATOM     20  C   UNL     1      52.280 156.331  28.959  0.00  0.00    +0.105 C 
BRANCH  20  21
ATOM     21  C   UNL     1      52.703 157.698  29.183  0.00  0.00    +0.237 C 
ATOM     22  O   UNL     1      53.829 158.079  28.755  0.00  0.00    -0.274 OA
ATOM     23  N   UNL     1      51.948 158.691  29.865  0.00  0.00    -0.248 N 
ATOM     24  H   UNL     1      51.065 158.434  30.217  0.00  0.00    +0.169 HD
BRANCH  23  25
ATOM     25  N   UNL     1      52.368 159.997  30.070  0.00  0.00    -0.200 NA
ATOM     26  H   UNL     1      52.395 160.435  29.149  0.00  0.00    +0.148 HD
BRANCH  25  27
ATOM     27  C   UNL     1      51.662 160.897  30.917  0.00  0.00    +0.272 C 
ATOM     28  O   UNL     1      50.805 160.340  31.690  0.00  0.00    -0.199 OA
ENDBRANCH  25  27
ENDBRANCH  23  25
ENDBRANCH  20  21
ENDBRANCH  15  16
ENDBRANCH   1  15
TORSDOF 9
ENDMDL
