REMARK  Name = =
REMARK  9 active torsions:
REMARK  status: ('A' for Active; 'I' for Inactive)
REMARK    1  A    between atoms: P_1  and  O_3
REMARK    2  A    between atoms: P_1  and  S_4
REMARK    3  A    between atoms: P_1  and  O_10
REMARK    4  A    between atoms: S_4  and  N_5
REMARK    5  A    between atoms: N_5  and  N_9
REMARK    6  A    between atoms: O_10  and  C_11
REMARK    7  A    between atoms: C_15  and  C_16
REMARK    8  A    between atoms: N_18  and  N_19
REMARK    9  A    between atoms: N_19  and  C_20
REMARK                            x       y       z     vdW  Elec       q    Type
REMARK                         _______ _______ _______ _____ _____    ______ ____
ROOT
ATOM      1  P   UNL     1      52.112 153.763  27.207  0.00  0.00    +0.243 P 
ATOM      2  S   UNL     1      52.189 152.038  27.092  0.00  0.00    +0.004 S 
ENDROOT
BRANCH   1   3
ATOM      3  O   UNL     1      50.949 154.382  26.175  0.00  0.00    -0.339 OA
ATOM      4  H   UNL     1      50.082 154.013  26.406  0.00  0.00    +0.218 HD
ENDBRANCH   1   3
BRANCH   1   5
ATOM      5  S   UNL     1      51.660 154.258  29.216  0.00  0.00    +0.026 S 
BRANCH   5   6
ATOM      6  N   UNL     1      50.570 155.571  29.398  0.00  0.00    -0.174 NA
ATOM      7  H   UNL     1      49.799 155.243  29.980  0.00  0.00    +0.159 HD
BRANCH   6  11
ATOM      8  N   UNL     1      52.422 158.789  29.873  0.00  0.00    -0.312 N 
ATOM      9  C   UNL     1      51.959 157.586  29.283  0.00  0.00    +0.311 C 
ATOM     10  O   UNL     1      52.362 157.255  28.147  0.00  0.00    -0.252 OA
ATOM     11  N   UNL     1      51.027 156.725  29.952  0.00  0.00    -0.225 N 
ATOM     12  H   UNL     1      52.106 159.052  30.768  0.00  0.00    +0.147 HD
ATOM     13  H   UNL     1      53.059 159.362  29.388  0.00  0.00    +0.147 HD
ATOM     14  H   UNL     1      50.706 156.980  30.847  0.00  0.00    +0.171 HD
ENDBRANCH   6  11
ENDBRANCH   5   6
ENDBRANCH   1   5
BRANCH   1  15
ATOM     15  O   UNL     1      53.668 154.358  26.873  0.00  0.00    -0.311 OA
BRANCH  15  16
ATOM     16  C   UNL     1      53.872 154.523  25.498  0.00  0.00    +0.131 C 
ATOM     17  C   UNL     1      54.007 156.074  25.254  0.00  0.00    +0.031 C 
ATOM     18  C   UNL     1      54.684 156.127  23.921  0.00  0.00    +0.003 C 
ATOM     19  C   UNL     1      55.358 154.789  23.704  0.00  0.00    +0.012 C 
ATOM     20  C   UNL     1      55.234 154.124  25.072  0.00  0.00    +0.105 C 
BRANCH  20  21
ATOM     21  C   UNL     1      55.568 152.715  25.045  0.00  0.00    +0.237 C 
ATOM     22  O   UNL     1      56.752 152.352  25.293  0.00  0.00    -0.274 OA
ATOM     23  N   UNL     1      54.661 151.660  24.752  0.00  0.00    -0.248 N 
ATOM     24  H   UNL     1      53.728 151.901  24.550  0.00  0.00    +0.169 HD
BRANCH  23  25
ATOM     25  N   UNL     1      54.998 150.315  24.731  0.00  0.00    -0.200 NA
ATOM     26  H   UNL     1      55.706 150.188  25.454  0.00  0.00    +0.148 HD
BRANCH  25  27
ATOM     27  C   UNL     1      54.034 149.288  24.935  0.00  0.00    +0.272 C 
ATOM     28  O   UNL     1      52.840 149.710  25.134  0.00  0.00    -0.199 OA
ENDBRANCH  25  27
ENDBRANCH  23  25
ENDBRANCH  20  21
ENDBRANCH  15  16
ENDBRANCH   1  15
TORSDOF 9
