REMARK  Name = =
REMARK  0 active torsions:
REMARK  status: ('A' for Active; 'I' for Inactive)
REMARK                            x       y       z     vdW  Elec       q    Type
REMARK                         _______ _______ _______ _____ _____    ______ ____
ROOT
ATOM      1  N   UNL     1      52.350 155.658  28.008  0.00  0.00    -0.295 NA
ATOM      2  C   UNL     1      51.578 154.524  28.375  0.00  0.00    +0.086 C 
ATOM      3  C   UNL     1      51.840 153.272  27.636  0.00  0.00    +0.086 C 
ATOM      4  N   UNL     1      52.187 153.455  26.252  0.00  0.00    -0.295 NA
ATOM      5  C   UNL     1      53.195 154.492  26.139  0.00  0.00    +0.086 C 
ATOM      6  C   UNL     1      52.473 155.776  26.575  0.00  0.00    +0.086 C 
ATOM      7  H   UNL     1      53.282 155.570  28.414  0.00  0.00    +0.123 HD
ATOM      8  H   UNL     1      51.357 153.729  25.727  0.00  0.00    +0.123 HD
ENDROOT
TORSDOF 0
