REMARK  Name = =
REMARK  1 active torsions:
REMARK  status: ('A' for Active; 'I' for Inactive)
REMARK    1  A    between atoms: C_1  and  N_15
REMARK                            x       y       z     vdW  Elec       q    Type
REMARK                         _______ _______ _______ _____ _____    ______ ____
ROOT
ATOM      1  C   UNL     1      53.152 154.589  26.089  0.00  0.00    +0.256 C 
ATOM      2  O   UNL     1      53.517 155.628  26.903  0.00  0.00    -0.315 OA
ATOM      3  C   UNL     1      52.265 156.017  27.457  0.00  0.00    +0.215 C 
ATOM      4  N   UNL     1      51.618 154.794  27.776  0.00  0.00    -0.244 N 
ATOM      5  C   UNL     1      50.563 154.728  28.744  0.00  0.00    +0.181 C 
ATOM      6  C   UNL     1      51.016 155.530  29.939  0.00  0.00    +0.246 C 
ATOM      7  O   UNL     1      50.865 155.102  31.090  0.00  0.00    -0.273 OA
ATOM      8  N   UNL     1      51.618 156.787  29.698  0.00  0.00    -0.276 N 
ATOM      9  C   UNL     1      52.401 157.044  28.498  0.00  0.00    +0.122 C 
ATOM     10  C   UNL     1      51.681 158.317  28.020  0.00  0.00    +0.026 C 
ATOM     11  C   UNL     1      51.259 159.003  29.308  0.00  0.00    +0.023 C 
ATOM     12  C   UNL     1      51.645 158.025  30.423  0.00  0.00    +0.094 C 
ATOM     13  C   UNL     1      52.263 153.796  26.934  0.00  0.00    +0.271 C 
ATOM     14  O   UNL     1      51.991 152.592  27.051  0.00  0.00    -0.271 OA
ENDROOT
BRANCH   1  15
ATOM     15  N   UNL     1      54.199 153.891  25.425  0.00  0.00    -0.241 NA
ATOM     16  C   UNL     1      53.782 153.349  24.157  0.00  0.00    +0.092 C 
ATOM     17  C   UNL     1      53.927 151.875  24.038  0.00  0.00    +0.086 C 
ATOM     18  N   UNL     1      55.303 151.512  24.290  0.00  0.00    -0.295 NA
ATOM     19  C   UNL     1      55.850 152.123  25.456  0.00  0.00    +0.086 C 
ATOM     20  C   UNL     1      54.873 152.922  26.256  0.00  0.00    +0.092 C 
ATOM     21  H   UNL     1      55.863 151.793  23.485  0.00  0.00    +0.123 HD
ENDBRANCH   1  15
TORSDOF 1
