REMARK  Name = =
REMARK  4 active torsions:
REMARK  status: ('A' for Active; 'I' for Inactive)
REMARK    1  A    between atoms: C_1  and  N_15
REMARK    2  A    between atoms: C_1  and  S_21
REMARK    3  A    between atoms: S_21  and  C_22
REMARK    4  A    between atoms: C_22  and  N_24
REMARK                            x       y       z     vdW  Elec       q    Type
REMARK                         _______ _______ _______ _____ _____    ______ ____
ROOT
ATOM      1  C   UNL     1      52.069 155.591  28.114  0.00  0.00    +0.259 C 
ATOM      2  O   UNL     1      51.722 155.012  26.921  0.00  0.00    -0.310 OA
ATOM      3  C   UNL     1      52.969 154.867  26.259  0.00  0.00    +0.216 C 
ATOM      4  N   UNL     1      53.870 154.447  27.310  0.00  0.00    -0.244 N 
ATOM      5  C   UNL     1      55.175 153.907  26.972  0.00  0.00    +0.181 C 
ATOM      6  C   UNL     1      54.833 152.716  26.101  0.00  0.00    +0.246 C 
ATOM      7  O   UNL     1      55.447 151.642  26.264  0.00  0.00    -0.273 OA
ATOM      8  N   UNL     1      53.820 152.865  25.131  0.00  0.00    -0.276 N 
ATOM      9  C   UNL     1      52.735 153.824  25.213  0.00  0.00    +0.122 C 
ATOM     10  C   UNL     1      52.687 154.367  23.799  0.00  0.00    +0.026 C 
ATOM     11  C   UNL     1      53.555 153.428  22.950  0.00  0.00    +0.023 C 
ATOM     12  C   UNL     1      53.586 152.193  23.871  0.00  0.00    +0.094 C 
ATOM     13  C   UNL     1      53.215 154.664  28.545  0.00  0.00    +0.278 C 
ATOM     14  O   UNL     1      53.450 154.246  29.700  0.00  0.00    -0.270 OA
ENDROOT
BRANCH   1  15
ATOM     15  N   UNL     1      51.096 155.642  29.113  0.00  0.00    -0.235 NA
ATOM     16  C   UNL     1      50.944 156.880  29.752  0.00  0.00    +0.092 C 
ATOM     17  C   UNL     1      49.562 157.063  30.382  0.00  0.00    +0.086 C 
ATOM     18  N   UNL     1      48.475 156.678  29.540  0.00  0.00    -0.295 NA
ATOM     19  C   UNL     1      48.830 155.907  28.384  0.00  0.00    +0.086 C 
ATOM     20  C   UNL     1      49.894 154.896  28.833  0.00  0.00    +0.092 C 
ATOM     21  H   UNL     1      48.010 157.527  29.220  0.00  0.00    +0.123 HD
ENDBRANCH   1  15
BRANCH   1  22
ATOM     22  S   UNL     1      52.918 157.153  27.724  0.00  0.00    -0.042 S 
BRANCH  22  23
ATOM     23  C   UNL     1      53.967 157.666  29.048  0.00  0.00    +0.108 C 
ATOM     24  S   UNL     1      54.830 159.071  28.844  0.00  0.00    -0.028 S 
BRANCH  23  25
ATOM     25  N   UNL     1      54.176 157.001  30.264  0.00  0.00    -0.347 N 
ATOM     26  H   UNL     1      53.698 156.162  30.454  0.00  0.00    +0.143 HD
ATOM     27  H   UNL     1      54.801 157.373  30.928  0.00  0.00    +0.143 HD
ENDBRANCH  23  25
ENDBRANCH  22  23
ENDBRANCH   1  22
TORSDOF 4
