REMARK  Name = =
REMARK  6 active torsions:
REMARK  status: ('A' for Active; 'I' for Inactive)
REMARK    1  A    between atoms: C_1  and  N_15
REMARK    2  A    between atoms: C_1  and  S_21
REMARK    3  A    between atoms: S_21  and  N_22
REMARK    4  A    between atoms: S_21  and  C_34
REMARK    5  A    between atoms: N_25  and  C_28
REMARK    6  A    between atoms: C_34  and  N_36
REMARK                            x       y       z     vdW  Elec       q    Type
REMARK                         _______ _______ _______ _____ _____    ______ ____
ROOT
ATOM      1  C   UNL     1      53.757 153.771  26.882  0.00  0.00    +0.252 C 
ATOM      2  O   UNL     1      53.072 152.934  25.974  0.00  0.00    -0.311 OA
ATOM      3  C   UNL     1      52.135 152.213  26.701  0.00  0.00    +0.215 C 
ATOM      4  N   UNL     1      52.558 152.181  28.058  0.00  0.00    -0.244 N 
ATOM      5  C   UNL     1      51.773 151.438  29.032  0.00  0.00    +0.181 C 
ATOM      6  C   UNL     1      51.560 150.057  28.467  0.00  0.00    +0.246 C 
ATOM      7  O   UNL     1      51.231 149.160  29.281  0.00  0.00    -0.273 OA
ATOM      8  N   UNL     1      51.733 149.814  27.081  0.00  0.00    -0.276 N 
ATOM      9  C   UNL     1      51.951 150.869  26.135  0.00  0.00    +0.122 C 
ATOM     10  C   UNL     1      53.124 150.314  25.357  0.00  0.00    +0.026 C 
ATOM     11  C   UNL     1      52.711 148.840  25.203  0.00  0.00    +0.023 C 
ATOM     12  C   UNL     1      51.735 148.587  26.332  0.00  0.00    +0.094 C 
ATOM     13  C   UNL     1      53.738 152.959  28.117  0.00  0.00    +0.277 C 
ATOM     14  O   UNL     1      54.583 152.962  29.017  0.00  0.00    -0.270 OA
ENDROOT
BRANCH   1  15
ATOM     15  N   UNL     1      55.128 153.819  26.424  0.00  0.00    -0.236 NA
ATOM     16  C   UNL     1      55.349 154.728  25.330  0.00  0.00    +0.092 C 
ATOM     17  C   UNL     1      56.726 154.489  24.778  0.00  0.00    +0.086 C 
ATOM     18  N   UNL     1      57.656 153.990  25.773  0.00  0.00    -0.295 NA
ATOM     19  C   UNL     1      57.227 152.715  26.316  0.00  0.00    +0.086 C 
ATOM     20  C   UNL     1      55.713 152.557  26.124  0.00  0.00    +0.092 C 
ATOM     21  H   UNL     1      57.722 154.667  26.533  0.00  0.00    +0.123 HD
ENDBRANCH   1  15
BRANCH   1  22
ATOM     22  S   UNL     1      53.125 155.241  27.070  0.00  0.00    -0.098 S 
ATOM     23  H   UNL     1      54.206 155.917  26.598  0.00  0.00    +0.108 HD
BRANCH  22  24
ATOM     24  N   UNL     1      53.166 156.152  28.187  0.00  0.00    -0.235 NA
ATOM     25  C   UNL     1      52.618 155.746  29.477  0.00  0.00    +0.104 C 
ATOM     26  C   UNL     1      51.296 156.461  29.655  0.00  0.00    +0.109 C 
ATOM     27  N   UNL     1      51.600 157.867  29.825  0.00  0.00    -0.305 N 
ATOM     28  C   UNL     1      52.884 158.311  29.325  0.00  0.00    +0.109 C 
ATOM     29  C   UNL     1      53.310 157.569  28.081  0.00  0.00    +0.104 C 
BRANCH  27  30
ATOM     30  C   UNL     1      50.662 158.705  30.443  0.00  0.00    +0.048 C 
ATOM     31  C   UNL     1      49.357 158.307  30.576  0.00  0.00    +0.015 C 
ATOM     32  C   UNL     1      48.399 159.115  31.188  0.00  0.00    +0.001 C 
ATOM     33  C   UNL     1      48.758 160.353  31.677  0.00  0.00    +0.000 C 
ATOM     34  C   UNL     1      50.050 160.767  31.555  0.00  0.00    +0.001 C 
ATOM     35  C   UNL     1      50.998 159.944  30.940  0.00  0.00    +0.015 C 
ENDBRANCH  27  30
ENDBRANCH  22  24
BRANCH  22  36
ATOM     36  C   UNL     1      51.534 155.216  26.263  0.00  0.00    +0.101 C 
ATOM     37  S   UNL     1      51.396 155.078  24.664  0.00  0.00    -0.029 S 
BRANCH  36  38
ATOM     38  N   UNL     1      50.381 155.320  27.092  0.00  0.00    -0.347 N 
ATOM     39  H   UNL     1      50.482 155.404  28.068  0.00  0.00    +0.143 HD
ATOM     40  H   UNL     1      49.483 155.308  26.689  0.00  0.00    +0.143 HD
ENDBRANCH  36  38
ENDBRANCH  22  36
ENDBRANCH   1  22
TORSDOF 6
