MODEL 1
REMARK VINA RESULT:    -9.694      0.000      0.000
REMARK INTER + INTRA:         -15.038
REMARK INTER:                 -14.511
REMARK INTRA:                  -0.527
REMARK UNBOUND:                -0.527
REMARK  Name = =
REMARK  11 active torsions:
REMARK  status: ('A' for Active; 'I' for Inactive)
REMARK    1  A    between atoms: C_2  and  N_12
REMARK    2  A    between atoms: C_9  and  O_30
REMARK    3  A    between atoms: C_10  and  C_22
REMARK    4  A    between atoms: C_11  and  O_31
REMARK    5  A    between atoms: C_17  and  O_21
REMARK    6  A    between atoms: C_23  and  O_29
REMARK    7  A    between atoms: C_26  and  O_28
REMARK    8  A    between atoms: O_31  and  C_32
REMARK    9  A    between atoms: C_33  and  C_34
REMARK   10  A    between atoms: C_37  and  C_40
REMARK   11  A    between atoms: N_41  and  O_42
REMARK                            x       y       z     vdW  Elec       q    Type
REMARK                         _______ _______ _______ _____ _____    ______ ____
ROOT
ATOM      1  O   UNL     1       3.072  -4.506  29.289  0.00  0.00    -0.459 OA
ATOM      2  C   UNL     1       2.899  -4.191  27.919  0.00  0.00    +0.258 C 
ATOM      3  C   UNL     1       1.611  -3.415  27.738  0.00  0.00    +0.135 C 
ATOM      4  C   UNL     1       0.500  -4.279  28.216  0.00  0.00    +0.184 C 
ATOM      5  O   UNL     1      -0.599  -4.368  27.629  0.00  0.00    -0.291 OA
ATOM      6  C   UNL     1       0.738  -5.049  29.436  0.00  0.00    +0.104 C 
ATOM      7  C   UNL     1       2.026  -5.138  29.937  0.00  0.00    +0.149 C 
ATOM      8  C   UNL     1       2.214  -5.875  31.093  0.00  0.00    +0.074 C 
ATOM      9  C   UNL     1       1.166  -6.500  31.730  0.00  0.00    +0.140 C 
ATOM     10  C   UNL     1      -0.115  -6.379  31.185  0.00  0.00    +0.072 C 
ATOM     11  C   UNL     1      -0.334  -5.652  30.034  0.00  0.00    +0.154 C 
ENDROOT
BRANCH   2  12
ATOM     12  N   UNL     1       4.039  -3.533  27.357  0.00  0.00    -0.220 N 
ATOM     13  C   UNL     1       4.093  -2.699  26.302  0.00  0.00    +0.163 C 
ATOM     14  N   UNL     1       3.138  -2.247  25.488  0.00  0.00    -0.207 NA
ATOM     15  C   UNL     1       3.421  -1.401  24.472  0.00  0.00    +0.203 C 
ATOM     16  N   UNL     1       4.700  -1.012  24.288  0.00  0.00    -0.188 NA
ATOM     17  C   UNL     1       5.684  -1.450  25.092  0.00  0.00    +0.244 C 
ATOM     18  C   UNL     1       5.402  -2.307  26.121  0.00  0.00    +0.167 C 
ATOM     19  N   UNL     1       6.141  -2.897  27.058  0.00  0.00    -0.220 NA
ATOM     20  C   UNL     1       5.308  -3.642  27.808  0.00  0.00    +0.172 C 
BRANCH  17  21
ATOM     21  O   UNL     1       6.974  -1.001  24.835  0.00  0.00    -0.491 OA
ATOM     22  H   UNL     1       7.122  -0.353  24.174  0.00  0.00    +0.294 HD
ENDBRANCH  17  21
ENDBRANCH   2  12
BRANCH  10  23
ATOM     23  C   UNL     1      -1.207  -7.031  31.851  0.00  0.00    +0.043 C 
ATOM     24  C   UNL     1      -1.549  -8.322  31.509  0.00  0.00    +0.134 C 
ATOM     25  C   UNL     1      -2.599  -8.943  32.152  0.00  0.00    +0.040 C 
ATOM     26  C   UNL     1      -3.325  -8.299  33.140  0.00  0.00    +0.040 C 
ATOM     27  C   UNL     1      -2.955  -7.000  33.461  0.00  0.00    +0.134 C 
ATOM     28  C   UNL     1      -1.908  -6.359  32.831  0.00  0.00    +0.040 C 
BRANCH  27  29
ATOM     29  O   UNL     1      -3.693  -6.367  34.455  0.00  0.00    -0.506 OA
ATOM     30  H   UNL     1      -3.932  -6.835  35.230  0.00  0.00    +0.292 HD
ENDBRANCH  27  29
BRANCH  24  31
ATOM     31  O   UNL     1      -0.863  -9.041  30.519  0.00  0.00    -0.506 OA
ATOM     32  H   UNL     1      -1.308  -9.302  29.736  0.00  0.00    +0.292 HD
ENDBRANCH  24  31
ENDBRANCH  10  23
BRANCH   9  33
ATOM     33  O   UNL     1       1.394  -7.229  32.887  0.00  0.00    -0.505 OA
ATOM     34  H   UNL     1       1.429  -8.164  32.851  0.00  0.00    +0.292 HD
ENDBRANCH   9  33
BRANCH  11  35
ATOM     35  O   UNL     1      -1.636  -5.557  29.521  0.00  0.00    -0.450 OA
BRANCH  35  36
ATOM     36  C   UNL     1      -2.379  -4.453  29.964  0.00  0.00    +0.180 C 
ATOM     37  C   UNL     1      -3.567  -4.596  30.517  0.00  0.00    +0.041 C 
BRANCH  37  38
ATOM     38  C   UNL     1      -4.378  -3.509  30.991  0.00  0.00    +0.003 C 
ATOM     39  C   UNL     1      -3.978  -2.205  30.726  0.00  0.00    +0.000 C 
ATOM     40  C   UNL     1      -4.676  -1.099  31.129  0.00  0.00    +0.002 C 
ATOM     41  C   UNL     1      -5.845  -1.248  31.839  0.00  0.00    +0.022 C 
ATOM     42  C   UNL     1      -6.261  -2.526  32.112  0.00  0.00    +0.002 C 
ATOM     43  C   UNL     1      -5.544  -3.653  31.698  0.00  0.00    +0.000 C 
BRANCH  41  44
ATOM     44  C   UNL     1      -6.608  -0.080  32.281  0.00  0.00    +0.140 C 
ATOM     45  N   UNL     1      -7.278   0.595  31.412  0.00  0.00    -0.085 NA
BRANCH  45  46
ATOM     46  O   UNL     1      -7.986   1.679  31.822  0.00  0.00    -0.409 OA
ATOM     47  H   UNL     1      -7.540   2.467  32.059  0.00  0.00    +0.328 HD
ENDBRANCH  45  46
ENDBRANCH  41  44
ENDBRANCH  37  38
ENDBRANCH  35  36
ENDBRANCH  11  35
TORSDOF 11
ENDMDL
