REMARK  Name = =
REMARK  0 active torsions:
REMARK  status: ('A' for Active; 'I' for Inactive)
REMARK                            x       y       z     vdW  Elec       q    Type
REMARK                         _______ _______ _______ _____ _____    ______ ____
ROOT
ATOM      1  N   UNL     1      52.353 156.312  29.154  0.00  0.00    -0.253 N 
ATOM      2  C   UNL     1      52.848 156.243  27.805  0.00  0.00    +0.244 C 
ATOM      3  O   UNL     1      53.349 157.280  27.285  0.00  0.00    -0.273 OA
ATOM      4  C   UNL     1      52.722 154.943  27.133  0.00  0.00    +0.156 C 
ATOM      5  N   UNL     1      51.450 154.297  27.276  0.00  0.00    -0.282 NA
ATOM      6  C   UNL     1      50.618 154.782  28.331  0.00  0.00    +0.156 C 
ATOM      7  C   UNL     1      51.349 155.352  29.474  0.00  0.00    +0.244 C 
ATOM      8  O   UNL     1      51.160 155.067  30.675  0.00  0.00    -0.273 OA
ATOM      9  H   UNL     1      52.682 156.972  29.806  0.00  0.00    +0.158 HD
ATOM     10  H   UNL     1      51.620 153.305  27.443  0.00  0.00    +0.124 HD
ENDROOT
TORSDOF 0
