REMARK  Name = =
REMARK  3 active torsions:
REMARK  status: ('A' for Active; 'I' for Inactive)
REMARK    1  A    between atoms: N_1  and  C_9
REMARK    2  A    between atoms: N_16  and  C_19
REMARK    3  A    between atoms: C_28  and  O_30
REMARK                            x       y       z     vdW  Elec       q    Type
REMARK                         _______ _______ _______ _____ _____    ______ ____
ROOT
ATOM      1  N   UNL     1      52.409 153.200  27.290  0.00  0.00    -0.230 N 
ATOM      2  C   UNL     1      52.513 154.627  27.380  0.00  0.00    +0.268 C 
ATOM      3  O   UNL     1      52.605 155.302  26.330  0.00  0.00    -0.196 OA
ATOM      4  C   UNL     1      52.501 155.185  28.760  0.00  0.00    +0.185 C 
ATOM      5  N   UNL     1      51.206 154.752  29.317  0.00  0.00    -0.272 NA
ATOM      6  C   UNL     1      51.063 153.339  29.406  0.00  0.00    +0.157 C 
ATOM      7  C   UNL     1      51.735 152.558  28.366  0.00  0.00    +0.247 C 
ATOM      8  O   UNL     1      51.717 151.310  28.421  0.00  0.00    -0.273 OA
ATOM      9  N   UNL     1      52.518 156.604  28.832  0.00  0.00    -0.253 N 
ATOM     10  C   UNL     1      53.100 157.429  27.849  0.00  0.00    +0.287 C 
ATOM     11  O   UNL     1      53.055 158.714  28.018  0.00  0.00    -0.269 OA
ATOM     12  C   UNL     1      53.762 157.007  26.639  0.00  0.00    +0.343 C 
ATOM     13  O   UNL     1      54.120 155.837  26.352  0.00  0.00    -0.181 OA
ATOM     14  H   UNL     1      50.462 155.114  28.720  0.00  0.00    +0.125 HD
ENDROOT
BRANCH   9  15
ATOM     15  C   UNL     1      51.902 157.228  30.023  0.00  0.00    +0.142 C 
ATOM     16  C   UNL     1      52.524 158.587  30.219  0.00  0.00    +0.097 C 
ATOM     17  N   UNL     1      51.617 159.477  30.172  0.00  0.00    -0.247 NA
ATOM     18  C   UNL     1      50.340 158.904  29.953  0.00  0.00    +0.079 C 
ATOM     19  C   UNL     1      50.493 157.532  29.856  0.00  0.00    +0.019 C 
ATOM     20  C   UNL     1      49.356 156.774  29.633  0.00  0.00    -0.001 C 
ATOM     21  C   UNL     1      48.131 157.423  29.520  0.00  0.00    -0.000 C 
ATOM     22  C   UNL     1      47.966 158.776  29.614  0.00  0.00    +0.002 C 
ATOM     23  C   UNL     1      49.095 159.530  29.835  0.00  0.00    +0.019 C 
ENDBRANCH   9  15
BRANCH   1  24
ATOM     24  C   UNL     1      52.956 152.479  26.174  0.00  0.00    +0.058 C 
ATOM     25  C   UNL     1      53.489 153.105  25.069  0.00  0.00    +0.045 C 
ATOM     26  C   UNL     1      54.012 152.383  23.997  0.00  0.00    +0.141 C 
ATOM     27  C   UNL     1      54.013 151.008  24.011  0.00  0.00    +0.030 C 
ATOM     28  C   UNL     1      53.480 150.382  25.118  0.00  0.00    +0.004 C 
ATOM     29  C   UNL     1      52.962 151.100  26.180  0.00  0.00    +0.015 C 
ATOM     30  F   UNL     1      54.536 153.011  22.909  0.00  0.00    -0.204 F 
ENDBRANCH   1  24
BRANCH  12  31
ATOM     31  O   UNL     1      54.078 157.940  25.614  0.00  0.00    -0.351 OA
ATOM     32  H   UNL     1      53.784 158.825  25.880  0.00  0.00    +0.213 HD
ENDBRANCH  12  31
TORSDOF 3
