REMARK  Name = =
REMARK  3 active torsions:
REMARK  status: ('A' for Active; 'I' for Inactive)
REMARK    1  A    between atoms: C_1  and  O_7
REMARK    2  A    between atoms: C_2  and  O_10
REMARK    3  A    between atoms: C_4  and  C_8
REMARK                            x       y       z     vdW  Elec       q    Type
REMARK                         _______ _______ _______ _____ _____    ______ ____
ROOT
ATOM      1  C   UNL     1      -3.151  -3.885  30.250  0.00  0.00    +0.167 C 
ATOM      2  C   UNL     1      -2.605  -2.781  29.643  0.00  0.00    +0.168 C 
ATOM      3  C   UNL     1      -1.509  -2.900  28.777  0.00  0.00    +0.043 C 
ATOM      4  C   UNL     1      -0.953  -4.135  28.516  0.00  0.00    +0.045 C 
ATOM      5  C   UNL     1      -1.519  -5.231  29.138  0.00  0.00    +0.007 C 
ATOM      6  C   UNL     1      -2.599  -5.118  29.990  0.00  0.00    +0.040 C 
ENDROOT
BRANCH   1   7
ATOM      7  O   UNL     1      -4.250  -3.727  31.111  0.00  0.00    -0.503 OA
ATOM      8  H   UNL     1      -4.603  -2.873  31.268  0.00  0.00    +0.292 HD
ENDBRANCH   1   7
BRANCH   4   9
ATOM      9  C   UNL     1       0.195  -4.281  27.613  0.00  0.00    +0.234 C 
ATOM     10  O   UNL     1       0.587  -5.442  27.358  0.00  0.00    -0.283 OA
ENDBRANCH   4   9
BRANCH   2  11
ATOM     11  O   UNL     1      -3.148  -1.524  29.891  0.00  0.00    -0.503 OA
ATOM     12  H   UNL     1      -3.881  -1.436  30.469  0.00  0.00    +0.292 HD
ENDBRANCH   2  11
TORSDOF 3
