REMARK  Name = =
REMARK  3 active torsions:
REMARK  status: ('A' for Active; 'I' for Inactive)
REMARK    1  A    between atoms: C_1  and  O_8
REMARK    2  A    between atoms: C_2  and  O_11
REMARK    3  A    between atoms: C_4  and  C_9
REMARK                            x       y       z     vdW  Elec       q    Type
REMARK                         _______ _______ _______ _____ _____    ______ ____
ROOT
ATOM      1  C   UNL     1      -2.881  -2.727  29.984  0.00  0.00    +0.202 C 
ATOM      2  C   UNL     1      -1.947  -2.197  29.141  0.00  0.00    +0.170 C 
ATOM      3  C   UNL     1      -1.048  -3.008  28.407  0.00  0.00    +0.043 C 
ATOM      4  C   UNL     1      -1.085  -4.373  28.519  0.00  0.00    +0.045 C 
ATOM      5  C   UNL     1      -2.033  -4.895  29.373  0.00  0.00    +0.007 C 
ATOM      6  C   UNL     1      -2.901  -4.132  30.082  0.00  0.00    +0.043 C 
ENDROOT
BRANCH   1   8
ATOM      7  N   UNL     1      -4.200  -0.743  30.651  0.00  0.00    +0.111 NA
ATOM      8  O   UNL     1      -3.775  -2.007  30.718  0.00  0.00    -0.362 OA
ENDBRANCH   1   8
BRANCH   4   9
ATOM      9  C   UNL     1      -0.175  -5.236  27.778  0.00  0.00    +0.234 C 
ATOM     10  O   UNL     1       0.575  -4.791  26.873  0.00  0.00    -0.283 OA
ENDBRANCH   4   9
BRANCH   2  11
ATOM     11  O   UNL     1      -1.817  -0.836  28.950  0.00  0.00    -0.503 OA
ATOM     12  H   UNL     1      -2.381  -0.243  29.406  0.00  0.00    +0.292 HD
ENDBRANCH   2  11
TORSDOF 3
