REMARK  Name = =
REMARK  9 active torsions:
REMARK  status: ('A' for Active; 'I' for Inactive)
REMARK    1  A    between atoms: C_1  and  S_7
REMARK    2  A    between atoms: C_2  and  O_17
REMARK    3  A    between atoms: C_3  and  N_13
REMARK    4  A    between atoms: S_7  and  C_8
REMARK    5  A    between atoms: S_7  and  O_11
REMARK    6  A    between atoms: C_8  and  O_10
REMARK    7  A    between atoms: O_11  and  O_12
REMARK    8  A    between atoms: N_13  and  S_14
REMARK    9  A    between atoms: O_17  and  C_18
REMARK                            x       y       z     vdW  Elec       q    Type
REMARK                         _______ _______ _______ _____ _____    ______ ____
ROOT
ATOM      1  C   UNL     1     -10.941  -7.677  20.462  0.00  0.00    +0.073 C 
ATOM      2  C   UNL     1      -9.580  -7.827  20.363  0.00  0.00    +0.170 C 
ATOM      3  C   UNL     1      -8.936  -7.940  19.150  0.00  0.00    +0.099 C 
ATOM      4  C   UNL     1      -9.672  -7.901  17.986  0.00  0.00    +0.019 C 
ATOM      5  C   UNL     1     -11.028  -7.752  18.069  0.00  0.00    +0.002 C 
ATOM      6  C   UNL     1     -11.655  -7.641  19.284  0.00  0.00    +0.010 C 
ENDROOT
BRANCH   1   7
ATOM      7  S   UNL     1     -11.777  -7.534  21.964  0.00  0.00    -0.015 S 
ATOM      8  H   UNL     1     -10.926  -7.790  22.994  0.00  0.00    +0.126 HD
BRANCH   7   9
ATOM      9  C   UNL     1     -12.389  -5.868  21.959  0.00  0.00    +0.208 C 
ATOM     10  S   UNL     1     -11.432  -4.577  22.051  0.00  0.00    -0.004 S 
BRANCH   9  11
ATOM     11  O   UNL     1     -13.752  -5.704  21.872  0.00  0.00    -0.495 OA
ATOM     12  H   UNL     1     -14.312  -6.454  21.818  0.00  0.00    +0.293 HD
ENDBRANCH   9  11
ENDBRANCH   7   9
BRANCH   7  13
ATOM     13  O   UNL     1     -12.762  -8.503  22.241  0.00  0.00    -0.177 OA
BRANCH  13  14
ATOM     14  O   UNL     1     -13.067  -8.934  23.444  0.00  0.00    -0.239 OA
ATOM     15  H   UNL     1     -13.772  -9.597  23.381  0.00  0.00    +0.254 HD
ENDBRANCH  13  14
ENDBRANCH   7  13
ENDBRANCH   1   7
BRANCH   3  16
ATOM     16  N   UNL     1      -7.538  -8.087  19.040  0.00  0.00    -0.219 N 
ATOM     17  H   UNL     1      -6.964  -7.884  19.813  0.00  0.00    +0.173 HD
BRANCH  16  18
ATOM     18  S   UNL     1      -6.833  -8.614  17.579  0.00  0.00    +0.033 S 
ATOM     19  O   UNL     1      -5.369  -8.172  17.498  0.00  0.00    -0.158 OA
ATOM     20  O   UNL     1      -6.761 -10.115  17.529  0.00  0.00    -0.158 OA
ATOM     21  H   UNL     1      -7.598  -8.095  16.581  0.00  0.00    +0.233 HD
ENDBRANCH  16  18
ENDBRANCH   3  16
BRANCH   2  22
ATOM     22  O   UNL     1      -8.828  -7.868  21.524  0.00  0.00    -0.415 OA
BRANCH  22  23
ATOM     23  C   UNL     1      -8.228  -6.710  21.988  0.00  0.00    +0.423 C 
ATOM     24  O   UNL     1      -8.161  -5.721  21.183  0.00  0.00    -0.237 OA
ENDBRANCH  22  23
ENDBRANCH   2  22
TORSDOF 9
