REMARK  Name = =
REMARK  2 active torsions:
REMARK  status: ('A' for Active; 'I' for Inactive)
REMARK    1  A    between atoms: C_1  and  CA_3
REMARK    2  A    between atoms: C_1  and  O_4
REMARK                            x       y       z     vdW  Elec       q    Type
REMARK                         _______ _______ _______ _____ _____    ______ ____
ROOT
ATOM      1  C   GLY A   1      51.392 154.698  28.433  0.00  0.00    +0.158 C 
ENDROOT
BRANCH   1   3
ATOM      2  N   GLY A   1      53.174 153.173  28.020  0.00  0.00    -0.129 NA
ATOM      3  CA  GLY A   1      52.716 154.528  27.709  0.00  0.00    +0.141 C 
ENDBRANCH   1   3
BRANCH   1   4
ATOM      4  O   GLY A   1      51.731 155.121  29.740  0.00  0.00    -0.380 OA
ATOM      5  H   GLY A   1      50.921 155.249  30.259  0.00  0.00    +0.211 HD
ENDBRANCH   1   4
TORSDOF 2
