REMARK  Name = =
REMARK  4 active torsions:
REMARK  status: ('A' for Active; 'I' for Inactive)
REMARK    1  A    between atoms: N_1  and  C_2
REMARK    2  A    between atoms: N_1  and  C_7
REMARK    3  A    between atoms: C_7  and  C_8
REMARK    4  A    between atoms: C_8  and  O_9
REMARK                            x       y       z     vdW  Elec       q    Type
REMARK                         _______ _______ _______ _____ _____    ______ ____
ROOT
ATOM      1  N   UNL     1      52.166 154.114  27.396  0.00  0.00    -0.189 NA
ENDROOT
BRANCH   1   2
ATOM      2  C   UNL     1      52.913 152.874  27.396  0.00  0.00    +0.219 C 
ATOM      3  N   UNL     1      52.086 151.711  27.455  0.00  0.00    -0.228 NA
ATOM      4  C   UNL     1      52.314 150.996  26.406  0.00  0.00    +0.196 C 
ATOM      5  N   UNL     1      53.293 151.629  25.592  0.00  0.00    -0.224 NA
ATOM      6  C   UNL     1      53.673 152.733  26.132  0.00  0.00    +0.116 C 
ENDBRANCH   1   2
BRANCH   1   7
ATOM      7  C   UNL     1      51.474 154.243  28.644  0.00  0.00    +0.123 C 
BRANCH   7   8
ATOM      8  C   UNL     1      50.996 155.667  28.815  0.00  0.00    +0.156 C 
BRANCH   8   9
ATOM      9  O   UNL     1      50.320 155.761  30.034  0.00  0.00    -0.380 OA
ATOM     10  H   UNL     1      50.006 156.670  30.160  0.00  0.00    +0.211 HD
ENDBRANCH   8   9
ENDBRANCH   7   8
ENDBRANCH   1   7
TORSDOF 4
