REMARK  Name = =
REMARK  5 active torsions:
REMARK  status: ('A' for Active; 'I' for Inactive)
REMARK    1  A    between atoms: C_1  and  C_6
REMARK    2  A    between atoms: C_1  and  N_8
REMARK    3  A    between atoms: N_8  and  C_9
REMARK    4  A    between atoms: C_9  and  C_10
REMARK    5  A    between atoms: C_10  and  O_11
REMARK                            x       y       z     vdW  Elec       q    Type
REMARK                         _______ _______ _______ _____ _____    ______ ____
ROOT
ATOM      1  C   UNL     1      52.652 153.725  27.496  0.00  0.00    +0.207 C 
ATOM      2  N   UNL     1      52.603 155.118  27.135  0.00  0.00    -0.227 NA
ATOM      3  C   UNL     1      52.198 155.819  28.110  0.00  0.00    +0.196 C 
ATOM      4  N   UNL     1      51.946 154.956  29.186  0.00  0.00    -0.224 NA
ATOM      5  C   UNL     1      52.188 153.737  28.897  0.00  0.00    +0.118 C 
ENDROOT
BRANCH   1   6
ATOM      6  C   UNL     1      54.056 153.302  27.359  0.00  0.00    +0.060 C 
ATOM      7  S   UNL     1      54.530 152.932  26.079  0.00  0.00    -0.051 S 
ENDBRANCH   1   6
BRANCH   1   8
ATOM      8  N   UNL     1      51.754 153.013  26.618  0.00  0.00    -0.188 NA
BRANCH   8   9
ATOM      9  C   UNL     1      52.238 151.740  26.197  0.00  0.00    +0.123 C 
BRANCH   9  10
ATOM     10  C   UNL     1      51.543 150.631  26.965  0.00  0.00    +0.156 C 
BRANCH  10  11
ATOM     11  O   UNL     1      51.974 149.376  26.564  0.00  0.00    -0.380 OA
ATOM     12  H   UNL     1      51.509 148.696  27.076  0.00  0.00    +0.211 HD
ENDBRANCH  10  11
ENDBRANCH   9  10
ENDBRANCH   8   9
ENDBRANCH   1   8
TORSDOF 5
