REMARK  Name = =
REMARK  12 active torsions:
REMARK  status: ('A' for Active; 'I' for Inactive)
REMARK    1  A    between atoms: C_1  and  N_2
REMARK    2  A    between atoms: C_1  and  O_10
REMARK    3  A    between atoms: C_1  and  C_19
REMARK    4  A    between atoms: N_2  and  C_3
REMARK    5  A    between atoms: C_3  and  C_8
REMARK    6  A    between atoms: O_10  and  P_11
REMARK    7  A    between atoms: P_11  and  O_13
REMARK    8  A    between atoms: P_11  and  O_14
REMARK    9  A    between atoms: O_14  and  P_15
REMARK   10  A    between atoms: P_15  and  O_17
REMARK   11  A    between atoms: P_15  and  O_18
REMARK   12  A    between atoms: C_19  and  O_20
REMARK                            x       y       z     vdW  Elec       q    Type
REMARK                         _______ _______ _______ _____ _____    ______ ____
ROOT
ATOM      1  C   UNL     1      52.490 154.462  26.920  0.00  0.00    +0.231 C 
ENDROOT
BRANCH   1   2
ATOM      2  N   UNL     1      53.422 153.504  26.380  0.00  0.00    -0.161 NA
BRANCH   2   3
ATOM      3  C   UNL     1      53.875 153.922  25.063  0.00  0.00    +0.209 C 
ATOM      4  N   UNL     1      55.259 154.280  25.081  0.00  0.00    -0.227 NA
ATOM      5  C   UNL     1      55.377 155.501  24.725  0.00  0.00    +0.196 C 
ATOM      6  N   UNL     1      54.094 156.045  24.448  0.00  0.00    -0.224 NA
ATOM      7  C   UNL     1      53.188 155.154  24.633  0.00  0.00    +0.118 C 
BRANCH   3   8
ATOM      8  C   UNL     1      53.629 152.857  24.049  0.00  0.00    +0.060 C 
ATOM      9  S   UNL     1      54.071 151.527  24.306  0.00  0.00    -0.051 S 
ENDBRANCH   3   8
ENDBRANCH   2   3
ENDBRANCH   1   2
BRANCH   1  10
ATOM     10  O   UNL     1      52.936 154.834  28.166  0.00  0.00    -0.255 OA
BRANCH  10  11
ATOM     11  P   UNL     1      52.926 156.455  28.487  0.00  0.00    +0.485 P 
ATOM     12  O   UNL     1      53.936 157.215  27.619  0.00  0.00    -0.227 OA
BRANCH  11  13
ATOM     13  O   UNL     1      53.462 156.668  30.086  0.00  0.00    -0.302 OA
ATOM     14  H   UNL     1      54.341 156.271  30.188  0.00  0.00    +0.222 HD
ENDBRANCH  11  13
BRANCH  11  15
ATOM     15  O   UNL     1      51.408 157.164  28.394  0.00  0.00    -0.186 OA
BRANCH  15  16
ATOM     16  P   UNL     1      50.502 156.771  29.786  0.00  0.00    +0.481 P 
ATOM     17  O   UNL     1      50.391 157.951  30.718  0.00  0.00    -0.227 OA
BRANCH  16  18
ATOM     18  O   UNL     1      48.947 156.263  29.360  0.00  0.00    -0.302 OA
ATOM     19  H   UNL     1      49.008 155.503  28.760  0.00  0.00    +0.222 HD
ENDBRANCH  16  18
BRANCH  16  20
ATOM     20  O   UNL     1      51.350 155.518  30.587  0.00  0.00    -0.302 OA
ATOM     21  H   UNL     1      52.238 155.828  30.823  0.00  0.00    +0.222 HD
ENDBRANCH  16  20
ENDBRANCH  15  16
ENDBRANCH  11  15
ENDBRANCH  10  11
ENDBRANCH   1  10
BRANCH   1  22
ATOM     22  C   UNL     1      51.093 153.899  26.908  0.00  0.00    +0.186 C 
BRANCH  22  23
ATOM     23  O   UNL     1      51.082 152.507  27.035  0.00  0.00    -0.378 OA
ATOM     24  H   UNL     1      50.166 152.188  27.022  0.00  0.00    +0.211 HD
ENDBRANCH  22  23
ENDBRANCH   1  22
TORSDOF 12
