REMARK  Name = =
REMARK  14 active torsions:
REMARK  status: ('A' for Active; 'I' for Inactive)
REMARK    1  A    between atoms: N_1  and  C_2
REMARK    2  A    between atoms: N_1  and  C_14
REMARK    3  A    between atoms: C_2  and  C_7
REMARK    4  A    between atoms: C_7  and  N_9
REMARK    5  A    between atoms: N_9  and  O_13
REMARK    6  A    between atoms: C_14  and  O_15
REMARK    7  A    between atoms: C_14  and  C_24
REMARK    8  A    between atoms: O_15  and  P_16
REMARK    9  A    between atoms: P_16  and  O_18
REMARK   10  A    between atoms: P_16  and  O_19
REMARK   11  A    between atoms: O_19  and  P_20
REMARK   12  A    between atoms: P_20  and  O_22
REMARK   13  A    between atoms: P_20  and  O_23
REMARK   14  A    between atoms: C_24  and  O_25
REMARK                            x       y       z     vdW  Elec       q    Type
REMARK                         _______ _______ _______ _____ _____    ______ ____
ROOT
ATOM      1  N   UNL     1      52.118 155.289  28.937  0.00  0.00    -0.159 NA
ENDROOT
BRANCH   1   2
ATOM      2  C   UNL     1      52.077 156.722  29.002  0.00  0.00    +0.224 C 
ATOM      3  N   UNL     1      52.204 157.336  27.693  0.00  0.00    -0.225 NA
ATOM      4  C   UNL     1      53.230 158.101  27.718  0.00  0.00    +0.196 C 
ATOM      5  N   UNL     1      53.879 158.092  28.978  0.00  0.00    -0.224 NA
ATOM      6  C   UNL     1      53.219 157.292  29.741  0.00  0.00    +0.119 C 
BRANCH   2   7
ATOM      7  C   UNL     1      50.772 157.150  29.551  0.00  0.00    +0.136 C 
ATOM      8  S   UNL     1      49.580 156.048  29.667  0.00  0.00    -0.033 S 
BRANCH   7   9
ATOM      9  N   UNL     1      50.533 158.494  29.980  0.00  0.00    -0.128 N 
ATOM     10  C   UNL     1      49.379 158.820  30.714  0.00  0.00    +0.327 C 
ATOM     11  O   UNL     1      48.553 157.926  30.995  0.00  0.00    -0.250 OA
ATOM     12  N   UNL     1      49.147 160.138  31.132  0.00  0.00    -0.311 N 
ATOM     13  H   UNL     1      49.796 160.845  30.913  0.00  0.00    +0.147 HD
ATOM     14  H   UNL     1      48.336 160.356  31.645  0.00  0.00    +0.147 HD
BRANCH   9  15
ATOM     15  O   UNL     1      51.410 159.475  29.687  0.00  0.00    -0.286 OA
ATOM     16  H   UNL     1      52.151 159.106  29.181  0.00  0.00    +0.242 HD
ENDBRANCH   9  15
ENDBRANCH   7   9
ENDBRANCH   2   7
ENDBRANCH   1   2
BRANCH   1  17
ATOM     17  C   UNL     1      52.496 154.792  27.623  0.00  0.00    +0.231 C 
BRANCH  17  18
ATOM     18  O   UNL     1      52.928 153.479  27.803  0.00  0.00    -0.255 OA
BRANCH  18  19
ATOM     19  P   UNL     1      52.719 152.674  26.323  0.00  0.00    +0.485 P 
ATOM     20  O   UNL     1      51.261 152.519  25.979  0.00  0.00    -0.227 OA
BRANCH  19  21
ATOM     21  O   UNL     1      53.547 153.580  25.156  0.00  0.00    -0.302 OA
ATOM     22  H   UNL     1      53.454 153.154  24.290  0.00  0.00    +0.222 HD
ENDBRANCH  19  21
BRANCH  19  23
ATOM     23  O   UNL     1      53.417 151.135  26.368  0.00  0.00    -0.186 OA
BRANCH  23  24
ATOM     24  P   UNL     1      54.304 150.938  24.942  0.00  0.00    +0.481 P 
ATOM     25  O   UNL     1      54.527 149.467  24.622  0.00  0.00    -0.227 OA
BRANCH  24  26
ATOM     26  O   UNL     1      53.536 151.721  23.651  0.00  0.00    -0.302 OA
ATOM     27  H   UNL     1      53.403 152.656  23.873  0.00  0.00    +0.222 HD
ENDBRANCH  24  26
BRANCH  24  28
ATOM     28  O   UNL     1      55.794 151.725  25.172  0.00  0.00    -0.302 OA
ATOM     29  H   UNL     1      56.271 151.307  25.906  0.00  0.00    +0.222 HD
ENDBRANCH  24  28
ENDBRANCH  23  24
ENDBRANCH  19  23
ENDBRANCH  18  19
ENDBRANCH  17  18
BRANCH  17  30
ATOM     30  C   UNL     1      53.643 155.677  27.144  0.00  0.00    +0.186 C 
BRANCH  30  31
ATOM     31  O   UNL     1      53.825 155.576  25.779  0.00  0.00    -0.378 OA
ATOM     32  H   UNL     1      54.559 156.149  25.507  0.00  0.00    +0.211 HD
ENDBRANCH  30  31
ENDBRANCH  17  30
ENDBRANCH   1  17
TORSDOF 14
