REMARK  Name = =
REMARK  15 active torsions:
REMARK  status: ('A' for Active; 'I' for Inactive)
REMARK    1  A    between atoms: C_1  and  C_6
REMARK    2  A    between atoms: C_1  and  N_24
REMARK    3  A    between atoms: C_6  and  N_8
REMARK    4  A    between atoms: N_8  and  O_23
REMARK    5  A    between atoms: N_11  and  C_12
REMARK    6  A    between atoms: N_24  and  C_25
REMARK    7  A    between atoms: C_25  and  O_26
REMARK    8  A    between atoms: C_25  and  C_35
REMARK    9  A    between atoms: O_26  and  P_27
REMARK   10  A    between atoms: P_27  and  O_29
REMARK   11  A    between atoms: P_27  and  O_30
REMARK   12  A    between atoms: O_30  and  P_31
REMARK   13  A    between atoms: P_31  and  O_33
REMARK   14  A    between atoms: P_31  and  O_34
REMARK   15  A    between atoms: C_35  and  O_36
REMARK                            x       y       z     vdW  Elec       q    Type
REMARK                         _______ _______ _______ _____ _____    ______ ____
ROOT
ATOM      1  C   UNL     1      52.525 154.616  27.816  0.00  0.00    +0.224 C 
ATOM      2  N   UNL     1      51.406 153.801  27.381  0.00  0.00    -0.225 NA
ATOM      3  C   UNL     1      51.156 154.043  26.140  0.00  0.00    +0.196 C 
ATOM      4  N   UNL     1      52.072 155.012  25.675  0.00  0.00    -0.224 NA
ATOM      5  C   UNL     1      52.892 155.386  26.596  0.00  0.00    +0.119 C 
ENDROOT
BRANCH   1   6
ATOM      6  C   UNL     1      52.002 155.517  28.863  0.00  0.00    +0.136 C 
ATOM      7  S   UNL     1      51.167 154.980  30.157  0.00  0.00    -0.033 S 
BRANCH   6   8
ATOM      8  N   UNL     1      52.227 156.904  28.751  0.00  0.00    -0.128 N 
ATOM      9  C   UNL     1      51.400 157.873  29.392  0.00  0.00    +0.331 C 
ATOM     10  O   UNL     1      50.432 157.435  30.083  0.00  0.00    -0.250 OA
ATOM     11  N   UNL     1      51.613 159.258  29.289  0.00  0.00    -0.276 N 
ATOM     12  H   UNL     1      52.365 159.599  28.753  0.00  0.00    +0.152 HD
BRANCH  11  13
ATOM     13  C   UNL     1      50.745 160.175  29.958  0.00  0.00    +0.198 C 
ATOM     14  C   UNL     1      51.284 160.591  31.292  0.00  0.00    +0.198 C 
ATOM     15  O   UNL     1      52.494 160.623  31.650  0.00  0.00    -0.289 OA
ATOM     16  C   UNL     1      50.121 160.956  32.098  0.00  0.00    +0.040 C 
ATOM     17  C   UNL     1      49.013 160.331  31.533  0.00  0.00    +0.040 C 
ATOM     18  C   UNL     1      47.779 160.537  32.143  0.00  0.00    +0.003 C 
ATOM     19  C   UNL     1      47.646 161.330  33.263  0.00  0.00    +0.000 C 
ATOM     20  C   UNL     1      48.764 161.933  33.795  0.00  0.00    +0.000 C 
ATOM     21  C   UNL     1      50.013 161.757  33.226  0.00  0.00    +0.003 C 
ATOM     22  C   UNL     1      49.453 159.559  30.360  0.00  0.00    +0.198 C 
ATOM     23  O   UNL     1      48.814 158.609  29.877  0.00  0.00    -0.289 OA
ENDBRANCH  11  13
BRANCH   8  24
ATOM     24  O   UNL     1      53.261 157.356  28.015  0.00  0.00    -0.286 OA
ATOM     25  H   UNL     1      53.741 156.603  27.635  0.00  0.00    +0.242 HD
ENDBRANCH   8  24
ENDBRANCH   6   8
ENDBRANCH   1   6
BRANCH   1  26
ATOM     26  N   UNL     1      53.559 153.749  28.287  0.00  0.00    -0.159 NA
BRANCH  26  27
ATOM     27  C   UNL     1      54.689 153.606  27.431  0.00  0.00    +0.231 C 
BRANCH  27  28
ATOM     28  O   UNL     1      54.449 153.667  26.087  0.00  0.00    -0.255 OA
BRANCH  28  29
ATOM     29  P   UNL     1      55.598 152.871  25.154  0.00  0.00    +0.485 P 
ATOM     30  O   UNL     1      56.966 153.324  25.616  0.00  0.00    -0.227 OA
BRANCH  29  31
ATOM     31  O   UNL     1      55.458 153.288  23.523  0.00  0.00    -0.302 OA
ATOM     32  H   UNL     1      56.132 152.815  23.009  0.00  0.00    +0.222 HD
ENDBRANCH  29  31
BRANCH  29  33
ATOM     33  O   UNL     1      55.526 151.195  25.323  0.00  0.00    -0.186 OA
BRANCH  33  34
ATOM     34  P   UNL     1      54.002 150.602  24.918  0.00  0.00    +0.481 P 
ATOM     35  O   UNL     1      53.522 151.084  23.589  0.00  0.00    -0.227 OA
BRANCH  34  36
ATOM     36  O   UNL     1      52.881 151.114  26.095  0.00  0.00    -0.302 OA
ATOM     37  H   UNL     1      52.846 152.083  26.108  0.00  0.00    +0.222 HD
ENDBRANCH  34  36
BRANCH  34  38
ATOM     38  O   UNL     1      54.047 148.909  24.911  0.00  0.00    -0.302 OA
ATOM     39  H   UNL     1      54.358 148.590  25.773  0.00  0.00    +0.222 HD
ENDBRANCH  34  38
ENDBRANCH  33  34
ENDBRANCH  29  33
ENDBRANCH  28  29
ENDBRANCH  27  28
BRANCH  27  40
ATOM     40  C   UNL     1      55.478 152.380  27.842  0.00  0.00    +0.186 C 
BRANCH  40  41
ATOM     41  O   UNL     1      55.905 152.430  29.166  0.00  0.00    -0.378 OA
ATOM     42  H   UNL     1      56.403 151.624  29.376  0.00  0.00    +0.211 HD
ENDBRANCH  40  41
ENDBRANCH  27  40
ENDBRANCH  26  27
ENDBRANCH   1  26
TORSDOF 15
