MODEL 1
REMARK VINA RESULT:    -9.581      0.000      0.000
REMARK INTER + INTRA:          -9.581
REMARK INTER:                  -9.581
REMARK INTRA:                   0.000
REMARK UNBOUND:                 0.000
REMARK  Name = =
REMARK  0 active torsions:
REMARK  status: ('A' for Active; 'I' for Inactive)
REMARK                            x       y       z     vdW  Elec       q    Type
REMARK                         _______ _______ _______ _____ _____    ______ ____
ROOT
ATOM      1  C   UNL     1      48.317 161.735  41.836  0.00  0.00    +0.000 C 
ATOM      2  C   UNL     1      49.587 162.307  41.689  0.00  0.00    +0.000 C 
ATOM      3  C   UNL     1      49.650 163.646  41.314  0.00  0.00    +0.000 C 
ATOM      4  C   UNL     1      48.513 164.415  41.089  0.00  0.00    +0.000 C 
ATOM      5  C   UNL     1      47.285 163.814  41.244  0.00  0.00    +0.000 C 
ATOM      6  C   UNL     1      47.194 162.493  41.612  0.00  0.00    +0.000 C 
ATOM      7  C   UNL     1      48.564 165.753  40.715  0.00  0.00    +0.000 C 
ATOM      8  C   UNL     1      49.807 166.317  40.569  0.00  0.00    +0.000 C 
ATOM      9  C   UNL     1      50.938 165.574  40.788  0.00  0.00    +0.000 C 
ATOM     10  C   UNL     1      50.885 164.223  41.166  0.00  0.00    +0.000 C 
ATOM     11  C   UNL     1      50.713 161.545  41.913  0.00  0.00    +0.000 C 
ATOM     12  C   UNL     1      50.568 160.224  42.281  0.00  0.00    +0.005 C 
ATOM     13  C   UNL     1      49.326 159.659  42.427  0.00  0.00    +0.000 C 
ATOM     14  C   UNL     1      48.192 160.408  42.206  0.00  0.00    +0.000 C 
ATOM     15  C   UNL     1      49.207 158.311  42.803  0.00  0.00    +0.000 C 
ATOM     16  C   UNL     1      50.312 157.522  43.034  0.00  0.00    +0.000 C 
ATOM     17  C   UNL     1      51.554 158.105  42.884  0.00  0.00    +0.006 C 
ATOM     18  C   UNL     1      51.673 159.423  42.516  0.00  0.00    +0.030 C 
ATOM     19  I   UNL     1      53.570 160.300  42.290  0.00  0.00    -0.043 I 
ENDROOT
TORSDOF 0
ENDMDL
