REMARK  Name = =
REMARK  0 active torsions:
REMARK  status: ('A' for Active; 'I' for Inactive)
REMARK                            x       y       z     vdW  Elec       q    Type
REMARK                         _______ _______ _______ _____ _____    ______ ____
ROOT
ATOM      1  C   UNL     1      52.473 159.024  29.837  0.00  0.00    +0.000 C 
ATOM      2  C   UNL     1      51.297 158.263  29.832  0.00  0.00    +0.000 C 
ATOM      3  C   UNL     1      51.329 157.034  29.180  0.00  0.00    +0.000 C 
ATOM      4  C   UNL     1      52.470 156.550  28.549  0.00  0.00    +0.000 C 
ATOM      5  C   UNL     1      53.604 157.330  28.576  0.00  0.00    +0.000 C 
ATOM      6  C   UNL     1      53.600 158.548  29.212  0.00  0.00    +0.000 C 
ATOM      7  C   UNL     1      52.513 155.324  27.895  0.00  0.00    +0.000 C 
ATOM      8  C   UNL     1      51.363 154.576  27.888  0.00  0.00    +0.000 C 
ATOM      9  C   UNL     1      50.229 155.037  28.506  0.00  0.00    +0.000 C 
ATOM     10  C   UNL     1      50.187 156.275  29.166  0.00  0.00    +0.000 C 
ATOM     11  C   UNL     1      50.167 158.743  30.458  0.00  0.00    +0.000 C 
ATOM     12  C   UNL     1      50.215 159.971  31.083  0.00  0.00    +0.005 C 
ATOM     13  C   UNL     1      51.365 160.720  31.090  0.00  0.00    +0.000 C 
ATOM     14  C   UNL     1      52.501 160.254  30.468  0.00  0.00    +0.000 C 
ATOM     15  C   UNL     1      51.386 161.968  31.734  0.00  0.00    +0.000 C 
ATOM     16  C   UNL     1      50.274 162.476  32.369  0.00  0.00    +0.000 C 
ATOM     17  C   UNL     1      49.126 161.711  32.353  0.00  0.00    +0.006 C 
ATOM     18  C   UNL     1      49.103 160.490  31.724  0.00  0.00    +0.030 C 
ATOM     19  I   UNL     1      47.348 159.333  31.706  0.00  0.00    -0.043 I 
ENDROOT
TORSDOF 0
