REMARK  Name = =
REMARK  0 active torsions:
REMARK  status: ('A' for Active; 'I' for Inactive)
REMARK                            x       y       z     vdW  Elec       q    Type
REMARK                         _______ _______ _______ _____ _____    ______ ____
ROOT
ATOM      1  N   UNL     1      52.233 155.619  28.519  0.00  0.00    -0.242 NA
ATOM      2  C   UNL     1      52.815 156.457  27.641  0.00  0.00    +0.099 C 
ATOM      3  C   UNL     1      52.987 155.996  26.352  0.00  0.00    +0.021 C 
ATOM      4  C   UNL     1      52.592 154.736  25.941  0.00  0.00    +0.003 C 
ATOM      5  C   UNL     1      51.999 153.903  26.862  0.00  0.00    +0.021 C 
ATOM      6  C   UNL     1      51.839 154.388  28.144  0.00  0.00    +0.099 C 
ENDROOT
TORSDOF 0
