REMARK  Name = =
REMARK  1 active torsions:
REMARK  status: ('A' for Active; 'I' for Inactive)
REMARK    1  A    between atoms: C_6  and  C_7
REMARK                            x       y       z     vdW  Elec       q    Type
REMARK                         _______ _______ _______ _____ _____    ______ ____
ROOT
ATOM      1  N   UNL     1      52.410 155.513  28.347  0.00  0.00    -0.248 NA
ATOM      2  C   UNL     1      52.785 156.788  28.213  0.00  0.00    +0.098 C 
ATOM      3  C   UNL     1      53.199 157.224  26.987  0.00  0.00    +0.021 C 
ATOM      4  C   UNL     1      53.220 156.344  25.927  0.00  0.00    +0.003 C 
ATOM      5  C   UNL     1      52.834 155.032  26.067  0.00  0.00    +0.015 C 
ATOM      6  C   UNL     1      52.417 154.627  27.336  0.00  0.00    +0.059 C 
ENDROOT
BRANCH   6   7
ATOM      7  C   UNL     1      51.979 153.258  27.627  0.00  0.00    +0.040 C 
ATOM      8  C   UNL     1      53.014 152.194  27.194  0.00  0.00    +0.006 C 
ATOM      9  C   UNL     1      51.677 152.290  26.546  0.00  0.00    +0.006 C 
ENDBRANCH   6   7
TORSDOF 1
