REMARK  Name = =
REMARK  2 active torsions:
REMARK  status: ('A' for Active; 'I' for Inactive)
REMARK    1  A    between atoms: C_1  and  C_11
REMARK    2  A    between atoms: C_11  and  C_19
REMARK                            x       y       z     vdW  Elec       q    Type
REMARK                         _______ _______ _______ _____ _____    ______ ____
ROOT
ATOM      1  C   UNL     1      53.985 153.174  26.294  0.00  0.00    +0.027 C 
ATOM      2  C   UNL     1      54.299 153.851  27.593  0.00  0.00    +0.005 C 
ATOM      3  C   UNL     1      53.135 154.263  28.408  0.00  0.00    +0.005 C 
ATOM      4  C   UNL     1      51.845 153.581  28.155  0.00  0.00    +0.026 C 
ATOM      5  C   UNL     1      52.044 152.266  27.556  0.00  0.00    -0.026 C 
ATOM      6  C   UNL     1      53.067 152.046  26.669  0.00  0.00    -0.026 C 
ATOM      7  C   UNL     1      53.201 150.772  26.154  0.00  0.00    -0.005 C 
ATOM      8  C   UNL     1      52.349 149.743  26.502  0.00  0.00    -0.000 C 
ATOM      9  C   UNL     1      51.328 149.997  27.396  0.00  0.00    -0.000 C 
ATOM     10  C   UNL     1      51.160 151.243  27.931  0.00  0.00    -0.005 C 
ENDROOT
BRANCH   1  11
ATOM     11  C   UNL     1      53.390 154.031  25.228  0.00  0.00    +0.039 C 
ATOM     12  C   UNL     1      53.246 153.231  23.904  0.00  0.00    +0.006 C 
ATOM     13  C   UNL     1      52.087 153.847  24.605  0.00  0.00    +0.006 C 
BRANCH  11  19
ATOM     14  N   UNL     1      53.652 156.329  25.981  0.00  0.00    -0.248 NA
ATOM     15  C   UNL     1      54.090 157.586  25.980  0.00  0.00    +0.098 C 
ATOM     16  C   UNL     1      54.957 157.998  25.003  0.00  0.00    +0.021 C 
ATOM     17  C   UNL     1      55.348 157.063  24.037  0.00  0.00    +0.003 C 
ATOM     18  C   UNL     1      54.848 155.756  24.098  0.00  0.00    +0.015 C 
ATOM     19  C   UNL     1      53.982 155.394  25.096  0.00  0.00    +0.059 C 
ENDBRANCH  11  19
ENDBRANCH   1  11
TORSDOF 2
