REMARK  Name = =
REMARK  0 active torsions:
REMARK  status: ('A' for Active; 'I' for Inactive)
REMARK                            x       y       z     vdW  Elec       q    Type
REMARK                         _______ _______ _______ _____ _____    ______ ____
ROOT
ATOM      1  C   UNL     1      50.588 157.396  29.741  0.00  0.00    +0.116 C 
ATOM      2  C   UNL     1      49.876 158.448  30.281  0.00  0.00    +0.100 C 
ATOM      3  C   UNL     1      50.389 159.703  30.481  0.00  0.00    +0.019 C 
ATOM      4  C   UNL     1      51.701 159.919  30.119  0.00  0.00    +0.003 C 
ATOM      5  C   UNL     1      52.449 158.895  29.576  0.00  0.00    +0.021 C 
ATOM      6  C   UNL     1      51.911 157.634  29.382  0.00  0.00    +0.100 C 
ATOM      7  N   UNL     1      52.622 156.620  28.855  0.00  0.00    -0.241 NA
ATOM      8  C   UNL     1      52.088 155.385  28.666  0.00  0.00    +0.119 C 
ATOM      9  C   UNL     1      50.775 155.149  29.024  0.00  0.00    +0.120 C 
ATOM     10  N   UNL     1      50.075 156.174  29.550  0.00  0.00    -0.239 NA
ATOM     11  C   UNL     1      49.648 160.737  31.025  0.00  0.00    +0.003 C 
ATOM     12  C   UNL     1      48.344 160.472  31.370  0.00  0.00    +0.021 C 
ATOM     13  C   UNL     1      47.844 159.210  31.163  0.00  0.00    +0.099 C 
ATOM     14  N   UNL     1      48.589 158.224  30.633  0.00  0.00    -0.242 NA
ENDROOT
TORSDOF 0
