REMARK  Name = =
REMARK  0 active torsions:
REMARK  status: ('A' for Active; 'I' for Inactive)
REMARK                            x       y       z     vdW  Elec       q    Type
REMARK                         _______ _______ _______ _____ _____    ______ ____
ROOT
ATOM      1  C   UNL     1      51.319 159.358  30.370  0.00  0.00    +0.095 C 
ATOM      2  C   UNL     1      50.843 160.462  31.101  0.00  0.00    +0.001 C 
ATOM      3  C   UNL     1      51.748 161.486  31.374  0.00  0.00    -0.003 C 
ATOM      4  C   UNL     1      53.074 161.417  30.939  0.00  0.00    +0.001 C 
ATOM      5  C   UNL     1      53.455 160.313  30.236  0.00  0.00    +0.021 C 
ATOM      6  C   UNL     1      52.609 159.268  29.934  0.00  0.00    +0.099 C 
ATOM      7  N   UNL     1      53.038 158.185  29.230  0.00  0.00    -0.241 NA
ATOM      8  C   UNL     1      52.198 157.178  28.945  0.00  0.00    +0.119 C 
ATOM      9  C   UNL     1      50.896 157.271  29.387  0.00  0.00    +0.119 C 
ATOM     10  N   UNL     1      50.486 158.345  30.082  0.00  0.00    -0.241 NA
ATOM     11  C   UNL     1      51.012 162.483  32.152  0.00  0.00    -0.007 C 
ATOM     12  C   UNL     1      49.774 162.113  32.330  0.00  0.00    -0.022 C 
ATOM     13  C   UNL     1      49.552 160.774  31.632  0.00  0.00    +0.051 C 
ATOM     14  C   UNL     1      48.494 161.030  30.572  0.00  0.00    +0.009 C 
ATOM     15  C   UNL     1      47.219 160.270  30.797  0.00  0.00    +0.001 C 
ATOM     16  C   UNL     1      47.402 158.875  31.306  0.00  0.00    +0.001 C 
ATOM     17  C   UNL     1      48.283 158.795  32.520  0.00  0.00    +0.018 C 
ATOM     18  C   UNL     1      48.987 160.080  32.816  0.00  0.00    +0.080 C 
ATOM     19  C   UNL     1      48.457 162.302  32.923  0.00  0.00    +0.111 C 
ATOM     20  N   UNL     1      47.974 161.107  33.219  0.00  0.00    -0.214 NA
ENDROOT
TORSDOF 0
