REMARK  Name = =
REMARK  6 active torsions:
REMARK  status: ('A' for Active; 'I' for Inactive)
REMARK    1  A    between atoms: C_8  and  P_21
REMARK    2  A    between atoms: P_21  and  O_22
REMARK    3  A    between atoms: P_21  and  O_23
REMARK    4  A    between atoms: P_21  and  O_24
REMARK    5  A    between atoms: P_21  and  C_25
REMARK    6  A    between atoms: C_25  and  O_27
REMARK                            x       y       z     vdW  Elec       q    Type
REMARK                         _______ _______ _______ _____ _____    ______ ____
ROOT
ATOM      1  C   UNL     1      51.166 159.028  30.369  0.00  0.00    +0.095 C 
ATOM      2  C   UNL     1      50.796 160.229  31.018  0.00  0.00    +0.001 C 
ATOM      3  C   UNL     1      51.770 161.198  31.122  0.00  0.00    -0.003 C 
ATOM      4  C   UNL     1      53.059 160.999  30.608  0.00  0.00    +0.001 C 
ATOM      5  C   UNL     1      53.346 159.801  29.986  0.00  0.00    +0.021 C 
ATOM      6  C   UNL     1      52.414 158.803  29.857  0.00  0.00    +0.099 C 
ATOM      7  N   UNL     1      52.716 157.643  29.251  0.00  0.00    -0.236 NA
ATOM      8  C   UNL     1      51.807 156.648  29.119  0.00  0.00    +0.165 C 
ATOM      9  C   UNL     1      50.549 156.875  29.636  0.00  0.00    +0.124 C 
ATOM     10  N   UNL     1      50.263 158.064  30.248  0.00  0.00    -0.241 NA
ATOM     11  C   UNL     1      51.177 162.313  31.852  0.00  0.00    -0.007 C 
ATOM     12  C   UNL     1      49.948 162.066  32.157  0.00  0.00    -0.022 C 
ATOM     13  C   UNL     1      49.584 160.713  31.597  0.00  0.00    +0.051 C 
ATOM     14  C   UNL     1      48.640 160.975  30.439  0.00  0.00    +0.009 C 
ATOM     15  C   UNL     1      47.237 160.610  30.749  0.00  0.00    +0.001 C 
ATOM     16  C   UNL     1      47.206 159.184  31.236  0.00  0.00    +0.001 C 
ATOM     17  C   UNL     1      47.934 159.068  32.512  0.00  0.00    +0.018 C 
ATOM     18  C   UNL     1      48.936 160.144  32.783  0.00  0.00    +0.080 C 
ATOM     19  C   UNL     1      48.686 162.390  32.867  0.00  0.00    +0.111 C 
ATOM     20  N   UNL     1      48.112 161.300  33.226  0.00  0.00    -0.214 NA
ENDROOT
BRANCH   8  21
ATOM     21  P   UNL     1      52.133 155.095  28.333  0.00  0.00    +0.297 P 
BRANCH  21  22
ATOM     22  O   UNL     1      53.558 154.627  28.402  0.00  0.00    -0.331 OA
ATOM     23  H   UNL     1      53.753 154.317  29.300  0.00  0.00    +0.219 HD
ENDBRANCH  21  22
BRANCH  21  24
ATOM     24  O   UNL     1      50.537 154.682  27.863  0.00  0.00    -0.331 OA
ATOM     25  H   UNL     1      50.004 154.499  28.653  0.00  0.00    +0.219 HD
ENDBRANCH  21  24
BRANCH  21  26
ATOM     26  O   UNL     1      52.619 153.723  29.151  0.00  0.00    -0.331 OA
ATOM     27  H   UNL     1      52.203 153.704  30.027  0.00  0.00    +0.219 HD
ENDBRANCH  21  26
BRANCH  21  28
ATOM     28  C   UNL     1      52.771 155.347  26.694  0.00  0.00    +0.398 C 
ATOM     29  O   UNL     1      53.198 156.504  26.406  0.00  0.00    -0.238 OA
BRANCH  28  30
ATOM     30  O   UNL     1      52.832 154.382  25.725  0.00  0.00    -0.473 OA
ATOM     31  H   UNL     1      52.524 153.516  25.906  0.00  0.00    +0.296 HD
ENDBRANCH  28  30
ENDBRANCH  21  28
ENDBRANCH   8  21
TORSDOF 6
