REMARK  Name = =
REMARK  0 active torsions:
REMARK  status: ('A' for Active; 'I' for Inactive)
REMARK                            x       y       z     vdW  Elec       q    Type
REMARK                         _______ _______ _______ _____ _____    ______ ____
ROOT
ATOM      1  N   UNL     1       3.425  -5.126  33.283  0.00  0.00    -0.293 NA
ATOM      2  C   UNL     1       2.587  -4.772  34.399  0.00  0.00    +0.101 C 
ATOM      3  C   UNL     1       1.579  -5.867  34.652  0.00  0.00    +0.159 C 
ATOM      4  O   UNL     1       1.807  -6.957  33.797  0.00  0.00    -0.351 OA
ATOM      5  C   UNL     1       1.527  -6.482  32.503  0.00  0.00    +0.159 C 
ATOM      6  C   UNL     1       2.644  -5.525  32.151  0.00  0.00    +0.101 C 
ATOM      7  H   UNL     1       4.033  -5.898  33.556  0.00  0.00    +0.123 HD
ENDROOT
TORSDOF 0
