REMARK  Name = =
REMARK  3 active torsions:
REMARK  status: ('A' for Active; 'I' for Inactive)
REMARK    1  A    between atoms: C_1  and  O_10
REMARK    2  A    between atoms: C_2  and  O_9
REMARK    3  A    between atoms: O_10  and  C_16
REMARK                            x       y       z     vdW  Elec       q    Type
REMARK                         _______ _______ _______ _____ _____    ______ ____
ROOT
ATOM      1  C   UNL     1       1.371 -11.835  23.369  0.00  0.00    +0.216 C 
ATOM      2  C   UNL     1       1.037 -13.001  23.918  0.00  0.00    +0.211 C 
ATOM      3  C   UNL     1       0.077 -13.835  23.209  0.00  0.00    +0.232 C 
ATOM      4  O   UNL     1      -0.225 -14.940  23.752  0.00  0.00    -0.283 OA
ATOM      5  C   UNL     1      -0.515 -13.435  21.939  0.00  0.00    +0.049 C 
ATOM      6  C   UNL     1      -0.190 -12.275  21.382  0.00  0.00    +0.049 C 
ATOM      7  C   UNL     1       0.771 -11.438  22.090  0.00  0.00    +0.233 C 
ATOM      8  O   UNL     1       1.085 -10.326  21.559  0.00  0.00    -0.283 OA
ENDROOT
BRANCH   2   9
ATOM      9  O   UNL     1       1.601 -13.366  25.112  0.00  0.00    -0.501 OA
ATOM     10  H   UNL     1       2.215 -12.797  25.533  0.00  0.00    +0.292 HD
ENDBRANCH   2   9
BRANCH   1  11
ATOM     11  O   UNL     1       2.283 -11.011  24.014  0.00  0.00    -0.455 OA
BRANCH  11  17
ATOM     12  N   UNL     1       1.800 -10.533  26.219  0.00  0.00    -0.260 NA
ATOM     13  C   UNL     1       2.793 -10.178  27.141  0.00  0.00    +0.104 C 
ATOM     14  C   UNL     1       3.542  -8.923  26.790  0.00  0.00    +0.160 C 
ATOM     15  O   UNL     1       2.716  -8.103  25.992  0.00  0.00    -0.347 OA
ATOM     16  C   UNL     1       2.670  -8.778  24.752  0.00  0.00    +0.203 C 
ATOM     17  C   UNL     1       1.837  -9.991  24.921  0.00  0.00    +0.255 C 
ATOM     18  H   UNL     1       0.905 -10.264  26.628  0.00  0.00    +0.127 HD
ENDBRANCH  11  17
ENDBRANCH   1  11
TORSDOF 3
