REMARK  Name = =
REMARK  7 active torsions:
REMARK  status: ('A' for Active; 'I' for Inactive)
REMARK    1  A    between atoms: C_1  and  C_24
REMARK    2  A    between atoms: C_2  and  S_30
REMARK    3  A    between atoms: C_20  and  N_28
REMARK    4  A    between atoms: C_22  and  O_29
REMARK    5  A    between atoms: C_23  and  C_25
REMARK    6  A    between atoms: S_30  and  C_31
REMARK    7  A    between atoms: C_31  and  O_33
REMARK                            x       y       z     vdW  Elec       q    Type
REMARK                         _______ _______ _______ _____ _____    ______ ____
ROOT
ATOM      1  C   UNL     1      -3.628  -2.856  31.290  0.00  0.00    +0.034 C 
ATOM      2  C   UNL     1      -2.661  -3.158  30.241  0.00  0.00    +0.059 C 
ATOM      3  C   UNL     1      -2.280  -4.664  30.198  0.00  0.00    +0.011 C 
ATOM      4  C   UNL     1      -1.449  -5.096  31.363  0.00  0.00    +0.001 C 
ATOM      5  C   UNL     1      -1.606  -6.594  31.475  0.00  0.00    +0.005 C 
ATOM      6  C   UNL     1      -0.636  -7.409  30.749  0.00  0.00    +0.057 C 
ATOM      7  C   UNL     1       0.134  -8.411  31.542  0.00  0.00    +0.120 C 
ATOM      8  O   UNL     1      -0.770  -9.409  31.248  0.00  0.00    -0.356 OA
ATOM      9  C   UNL     1      -1.085  -8.675  30.080  0.00  0.00    +0.142 C 
ATOM     10  C   UNL     1       0.196  -7.997  32.992  0.00  0.00    +0.030 C 
ATOM     11  C   UNL     1      -1.204  -7.952  33.542  0.00  0.00    +0.002 C 
ATOM     12  C   UNL     1      -2.120  -7.076  32.750  0.00  0.00    +0.000 C 
ATOM     13  C   UNL     1      -3.564  -7.370  32.877  0.00  0.00    +0.000 C 
ATOM     14  C   UNL     1      -4.438  -6.110  32.784  0.00  0.00    +0.000 C 
ATOM     15  C   UNL     1      -4.081  -5.256  31.639  0.00  0.00    +0.000 C 
ATOM     16  C   UNL     1      -4.263  -4.018  31.993  0.00  0.00    +0.005 C 
ATOM     17  C   UNL     1      -3.570  -5.514  30.253  0.00  0.00    +0.001 C 
ENDROOT
BRANCH   1  24
ATOM     18 CL   UNL     1      -6.135  -3.229  32.770  0.00  0.00    -0.081 Cl
ATOM     19  C   UNL     1      -5.716  -1.727  31.949  0.00  0.00    +0.067 C 
ATOM     20  C   UNL     1      -6.588  -0.696  32.059  0.00  0.00    +0.055 C 
ATOM     21  C   UNL     1      -6.305   0.469  31.410  0.00  0.00    +0.052 C 
ATOM     22  C   UNL     1      -5.157   0.567  30.676  0.00  0.00    +0.139 C 
ATOM     23  C   UNL     1      -4.248  -0.501  30.564  0.00  0.00    +0.084 C 
ATOM     24  C   UNL     1      -4.517  -1.691  31.205  0.00  0.00    -0.003 C 
BRANCH  23  25
ATOM     25  C   UNL     1      -2.994  -0.223  29.913  0.00  0.00    +0.245 C 
ATOM     26  O   UNL     1      -2.172  -1.064  29.544  0.00  0.00    -0.270 OA
ATOM     27  N   UNL     1      -2.659   1.173  29.677  0.00  0.00    -0.325 N 
ATOM     28  H   UNL     1      -3.283   1.883  29.954  0.00  0.00    +0.145 HD
ATOM     29  H   UNL     1      -1.808   1.408  29.241  0.00  0.00    +0.145 HD
ENDBRANCH  23  25
BRANCH  20  30
ATOM     30  N   UNL     1      -7.796  -0.781  32.825  0.00  0.00    -0.356 N 
ATOM     31  H   UNL     1      -8.019  -1.613  33.301  0.00  0.00    +0.142 HD
ATOM     32  H   UNL     1      -8.403  -0.007  32.875  0.00  0.00    +0.142 HD
ENDBRANCH  20  30
BRANCH  22  33
ATOM     33  O   UNL     1      -4.908   1.793  30.020  0.00  0.00    -0.505 OA
ATOM     34  H   UNL     1      -5.518   2.499  30.100  0.00  0.00    +0.292 HD
ENDBRANCH  22  33
ENDBRANCH   1  24
BRANCH   2  35
ATOM     35  S   UNL     1      -3.291  -2.896  28.542  0.00  0.00    -0.071 S 
BRANCH  35  36
ATOM     36  C   UNL     1      -2.086  -2.620  27.321  0.00  0.00    +0.199 C 
ATOM     37  S   UNL     1      -2.529  -1.783  25.957  0.00  0.00    -0.004 S 
BRANCH  36  38
ATOM     38  O   UNL     1      -0.773  -3.016  27.341  0.00  0.00    -0.496 OA
ATOM     39  H   UNL     1      -0.439  -3.494  28.074  0.00  0.00    +0.293 HD
ENDBRANCH  36  38
ENDBRANCH  35  36
ENDBRANCH   2  35
TORSDOF 7
