REMARK  Name = =
REMARK  7 active torsions:
REMARK  status: ('A' for Active; 'I' for Inactive)
REMARK    1  A    between atoms: N_1  and  N_7
REMARK    2  A    between atoms: C_6  and  O_13
REMARK    3  A    between atoms: N_7  and  C_9
REMARK    4  A    between atoms: C_9  and  N_10
REMARK    5  A    between atoms: N_10  and  N_11
REMARK    6  A    between atoms: O_13  and  C_14
REMARK    7  A    between atoms: C_15  and  O_22
REMARK                            x       y       z     vdW  Elec       q    Type
REMARK                         _______ _______ _______ _____ _____    ______ ____
ROOT
ATOM      1  N   UNL     1       0.286 -12.466  21.782  0.00  0.00    -0.166 NA
ATOM      2  C   UNL     1       0.481 -13.867  21.462  0.00  0.00    +0.127 C 
ATOM      3  C   UNL     1       0.517 -14.739  22.681  0.00  0.00    +0.162 C 
ATOM      4  O   UNL     1      -0.386 -14.374  23.657  0.00  0.00    -0.347 OA
ATOM      5  C   UNL     1      -0.334 -13.044  24.008  0.00  0.00    +0.205 C 
ATOM      6  C   UNL     1       0.655 -12.265  23.150  0.00  0.00    +0.274 C 
ENDROOT
BRANCH   1   7
ATOM      7  N   UNL     1       0.957 -11.696  20.871  0.00  0.00    -0.254 N 
ATOM      8  H   UNL     1       1.882 -11.411  21.049  0.00  0.00    +0.168 HD
BRANCH   7  10
ATOM      9  S   UNL     1      -1.164 -11.967  19.300  0.00  0.00    -0.016 S 
ATOM     10  C   UNL     1       0.310 -11.312  19.668  0.00  0.00    +0.164 C 
BRANCH  10  11
ATOM     11  N   UNL     1       0.855 -10.394  18.756  0.00  0.00    -0.217 N 
ATOM     12  H   UNL     1       0.353 -10.180  17.937  0.00  0.00    +0.176 HD
BRANCH  11  13
ATOM     13  N   UNL     1       2.086  -9.776  18.975  0.00  0.00    -0.177 NA
ATOM     14  C   UNL     1       2.473  -8.723  18.358  0.00  0.00    +0.140 C 
ENDBRANCH  11  13
ENDBRANCH  10  11
ENDBRANCH   7  10
ENDBRANCH   1   7
BRANCH   6  15
ATOM     15  O   UNL     1       0.594 -10.926  23.566  0.00  0.00    -0.453 OA
BRANCH  15  16
ATOM     16  C   UNL     1       1.171 -10.602  24.783  0.00  0.00    +0.216 C 
ATOM     17  C   UNL     1       0.425  -9.931  25.672  0.00  0.00    +0.211 C 
ATOM     18  C   UNL     1       1.020  -9.582  26.961  0.00  0.00    +0.232 C 
ATOM     19  O   UNL     1       0.302  -8.949  27.789  0.00  0.00    -0.283 OA
ATOM     20  C   UNL     1       2.392  -9.936  27.312  0.00  0.00    +0.049 C 
ATOM     21  C   UNL     1       3.124 -10.603  26.416  0.00  0.00    +0.049 C 
ATOM     22  C   UNL     1       2.547 -10.961  25.124  0.00  0.00    +0.233 C 
ATOM     23  O   UNL     1       3.258 -11.583  24.313  0.00  0.00    -0.283 OA
BRANCH  17  24
ATOM     24  O   UNL     1      -0.867  -9.601  25.337  0.00  0.00    -0.501 OA
ATOM     25  H   UNL     1      -1.210  -9.844  24.500  0.00  0.00    +0.292 HD
ENDBRANCH  17  24
ENDBRANCH  15  16
ENDBRANCH   6  15
TORSDOF 7
