REMARK  Name = =
REMARK  8 active torsions:
REMARK  status: ('A' for Active; 'I' for Inactive)
REMARK    1  A    between atoms: O_1  and  C_2
REMARK    2  A    between atoms: O_1  and  C_22
REMARK    3  A    between atoms: C_3  and  O_10
REMARK    4  A    between atoms: O_10  and  C_11
REMARK    5  A    between atoms: N_17  and  N_23
REMARK    6  A    between atoms: N_23  and  C_25
REMARK    7  A    between atoms: C_25  and  N_26
REMARK    8  A    between atoms: N_26  and  N_27
REMARK                            x       y       z     vdW  Elec       q    Type
REMARK                         _______ _______ _______ _____ _____    ______ ____
ROOT
ATOM      1  O   UNL     1       3.621 -10.368  23.404  0.00  0.00    -0.453 OA
ENDROOT
BRANCH   1   2
ATOM      2  C   UNL     1       2.394 -10.538  24.009  0.00  0.00    +0.216 C 
ATOM      3  C   UNL     1       2.334 -10.696  25.319  0.00  0.00    +0.220 C 
ATOM      4  C   UNL     1       1.024 -10.875  25.947  0.00  0.00    +0.233 C 
ATOM      5  O   UNL     1       0.951 -11.027  27.207  0.00  0.00    -0.283 OA
ATOM      6  C   UNL     1      -0.203 -10.884  25.169  0.00  0.00    +0.049 C 
ATOM      7  C   UNL     1      -0.099 -10.722  23.859  0.00  0.00    +0.049 C 
ATOM      8  C   UNL     1       1.170 -10.541  23.184  0.00  0.00    +0.233 C 
ATOM      9  O   UNL     1       1.268 -10.387  21.937  0.00  0.00    -0.283 OA
BRANCH   3  10
ATOM     10  O   UNL     1       3.486 -10.695  26.099  0.00  0.00    -0.452 OA
BRANCH  10  11
ATOM     11  C   UNL     1       4.045  -9.445  26.451  0.00  0.00    +0.119 C 
ATOM     12  C   UNL     1       3.283  -8.501  26.971  0.00  0.00    +0.007 C 
ATOM     13  C   UNL     1       3.746  -7.154  27.379  0.00  0.00    +0.029 C 
ATOM     14  C   UNL     1       5.205  -6.986  27.063  0.00  0.00    +0.005 C 
ATOM     15  C   UNL     1       5.956  -8.271  27.309  0.00  0.00    +0.008 C 
ATOM     16  C   UNL     1       5.501  -9.242  26.215  0.00  0.00    +0.064 C 
ENDBRANCH  10  11
ENDBRANCH   3  10
ENDBRANCH   1   2
BRANCH   1  22
ATOM     17  N   UNL     1       4.062 -12.445  22.590  0.00  0.00    -0.166 NA
ATOM     18  C   UNL     1       4.154 -12.295  21.165  0.00  0.00    +0.127 C 
ATOM     19  C   UNL     1       5.330 -11.463  20.728  0.00  0.00    +0.162 C 
ATOM     20  O   UNL     1       5.594 -10.376  21.523  0.00  0.00    -0.347 OA
ATOM     21  C   UNL     1       5.907 -10.847  22.802  0.00  0.00    +0.205 C 
ATOM     22  C   UNL     1       4.616 -11.417  23.354  0.00  0.00    +0.274 C 
BRANCH  17  23
ATOM     23  N   UNL     1       4.038 -13.732  23.013  0.00  0.00    -0.254 N 
ATOM     24  H   UNL     1       3.139 -14.087  23.199  0.00  0.00    +0.168 HD
BRANCH  23  26
ATOM     25  S   UNL     1       6.637 -14.408  22.772  0.00  0.00    -0.016 S 
ATOM     26  C   UNL     1       5.089 -14.648  23.231  0.00  0.00    +0.164 C 
BRANCH  26  27
ATOM     27  N   UNL     1       4.803 -15.874  23.890  0.00  0.00    -0.217 N 
ATOM     28  H   UNL     1       3.875 -16.105  24.123  0.00  0.00    +0.176 HD
BRANCH  27  29
ATOM     29  N   UNL     1       5.836 -16.742  24.203  0.00  0.00    -0.177 NA
ATOM     30  C   UNL     1       5.634 -18.038  24.278  0.00  0.00    +0.140 C 
ENDBRANCH  27  29
ENDBRANCH  26  27
ENDBRANCH  23  26
ENDBRANCH  17  23
ENDBRANCH   1  22
TORSDOF 8
