REMARK  Name = =
REMARK  9 active torsions:
REMARK  status: ('A' for Active; 'I' for Inactive)
REMARK    1  A    between atoms: C_1  and  O_9
REMARK    2  A    between atoms: C_2  and  O_22
REMARK    3  A    between atoms: O_9  and  C_15
REMARK    4  A    between atoms: N_10  and  N_16
REMARK    5  A    between atoms: N_16  and  C_18
REMARK    6  A    between atoms: C_18  and  N_19
REMARK    7  A    between atoms: N_19  and  N_20
REMARK    8  A    between atoms: O_22  and  C_23
REMARK    9  A    between atoms: C_24  and  S_29
REMARK                            x       y       z     vdW  Elec       q    Type
REMARK                         _______ _______ _______ _____ _____    ______ ____
ROOT
ATOM      1  C   UNL     1       4.575 -11.189  24.568  0.00  0.00    +0.216 C 
ATOM      2  C   UNL     1       4.972 -12.212  23.791  0.00  0.00    +0.220 C 
ATOM      3  C   UNL     1       6.189 -11.996  23.024  0.00  0.00    +0.233 C 
ATOM      4  O   UNL     1       6.597 -12.921  22.287  0.00  0.00    -0.283 OA
ATOM      5  C   UNL     1       6.970 -10.765  23.059  0.00  0.00    +0.049 C 
ATOM      6  C   UNL     1       6.549  -9.780  23.834  0.00  0.00    +0.049 C 
ATOM      7  C   UNL     1       5.327  -9.963  24.620  0.00  0.00    +0.233 C 
ATOM      8  O   UNL     1       4.974  -8.996  25.339  0.00  0.00    -0.283 OA
ENDROOT
BRANCH   1   9
ATOM      9  O   UNL     1       3.428 -11.374  25.300  0.00  0.00    -0.453 OA
BRANCH   9  15
ATOM     10  N   UNL     1       1.387 -10.625  26.195  0.00  0.00    -0.166 NA
ATOM     11  C   UNL     1       0.074 -11.019  25.850  0.00  0.00    +0.127 C 
ATOM     12  C   UNL     1       0.024 -12.119  24.818  0.00  0.00    +0.162 C 
ATOM     13  O   UNL     1       1.115 -12.066  23.946  0.00  0.00    -0.347 OA
ATOM     14  C   UNL     1       1.632 -10.785  23.823  0.00  0.00    +0.205 C 
ATOM     15  C   UNL     1       2.334 -10.456  25.142  0.00  0.00    +0.274 C 
BRANCH  10  16
ATOM     16  N   UNL     1       1.507  -9.693  27.207  0.00  0.00    -0.254 N 
ATOM     17  H   UNL     1       1.628 -10.046  28.118  0.00  0.00    +0.168 HD
BRANCH  16  19
ATOM     18  S   UNL     1       1.383  -7.358  28.414  0.00  0.00    -0.016 S 
ATOM     19  C   UNL     1       1.474  -8.289  27.073  0.00  0.00    +0.164 C 
BRANCH  19  20
ATOM     20  N   UNL     1       1.515  -7.615  25.834  0.00  0.00    -0.217 N 
ATOM     21  H   UNL     1       1.434  -8.146  25.009  0.00  0.00    +0.176 HD
BRANCH  20  22
ATOM     22  N   UNL     1       1.665  -6.234  25.723  0.00  0.00    -0.177 NA
ATOM     23  C   UNL     1       2.453  -5.704  24.837  0.00  0.00    +0.140 C 
ENDBRANCH  20  22
ENDBRANCH  19  20
ENDBRANCH  16  19
ENDBRANCH  10  16
ENDBRANCH   9  15
ENDBRANCH   1   9
BRANCH   2  24
ATOM     24  O   UNL     1       4.233 -13.393  23.750  0.00  0.00    -0.451 OA
BRANCH  24  25
ATOM     25  C   UNL     1       4.719 -14.621  24.144  0.00  0.00    +0.124 C 
ATOM     26  C   UNL     1       4.456 -15.668  23.325  0.00  0.00    +0.029 C 
ATOM     27  C   UNL     1       4.975 -16.941  23.863  0.00  0.00    +0.035 C 
ATOM     28  C   UNL     1       6.463 -16.792  24.051  0.00  0.00    +0.006 C 
ATOM     29  C   UNL     1       6.739 -15.715  25.052  0.00  0.00    +0.008 C 
ATOM     30  C   UNL     1       5.497 -14.889  25.375  0.00  0.00    +0.065 C 
BRANCH  26  31
ATOM     31  S   UNL     1       3.622 -15.446  21.977  0.00  0.00    -0.131 S 
ATOM     32  C   UNL     1       3.929 -14.875  20.401  0.00  0.00    +0.025 C 
ATOM     33  C   UNL     1       2.750 -14.608  19.873  0.00  0.00    +0.002 C 
ATOM     34  C   UNL     1       1.620 -14.853  20.699  0.00  0.00    -0.014 C 
ATOM     35  C   UNL     1       1.837 -15.313  21.895  0.00  0.00    +0.082 C 
ENDBRANCH  26  31
ENDBRANCH  24  25
ENDBRANCH   2  24
TORSDOF 9
REMARK  Name = =
REMARK  9 active torsions:
REMARK  status: ('A' for Active; 'I' for Inactive)
REMARK    1  A    between atoms: C_1  and  O_9
REMARK    2  A    between atoms: C_2  and  O_22
REMARK    3  A    between atoms: O_9  and  C_15
REMARK    4  A    between atoms: N_10  and  N_16
REMARK    5  A    between atoms: N_16  and  C_18
REMARK    6  A    between atoms: C_18  and  N_19
REMARK    7  A    between atoms: N_19  and  N_20
REMARK    8  A    between atoms: O_22  and  C_23
REMARK    9  A    between atoms: C_24  and  S_29
REMARK                            x       y       z     vdW  Elec       q    Type
REMARK                         _______ _______ _______ _____ _____    ______ ____
ROOT
ATOM      1  H   UNK     1       3.423 -17.528  21.413  0.00  0.00    +0.000 HD
ENDROOT
TORSDOF 0
