REMARK  Name = =
REMARK  10 active torsions:
REMARK  status: ('A' for Active; 'I' for Inactive)
REMARK    1  A    between atoms: C_1  and  O_14
REMARK    2  A    between atoms: C_2  and  O_27
REMARK    3  A    between atoms: C_6  and  C_9
REMARK    4  A    between atoms: O_14  and  C_20
REMARK    5  A    between atoms: N_15  and  N_21
REMARK    6  A    between atoms: N_21  and  C_23
REMARK    7  A    between atoms: C_23  and  N_24
REMARK    8  A    between atoms: N_24  and  N_25
REMARK    9  A    between atoms: O_27  and  C_28
REMARK   10  A    between atoms: C_29  and  S_34
REMARK                            x       y       z     vdW  Elec       q    Type
REMARK                         _______ _______ _______ _____ _____    ______ ____
ROOT
ATOM      1  C   UNL     1       2.015 -10.183  24.671  0.00  0.00    +0.216 C 
ATOM      2  C   UNL     1       2.138 -11.438  25.058  0.00  0.00    +0.220 C 
ATOM      3  C   UNL     1       1.880 -11.713  26.469  0.00  0.00    +0.233 C 
ATOM      4  O   UNL     1       1.987 -12.893  26.872  0.00  0.00    -0.283 OA
ATOM      5  C   UNL     1       1.506 -10.674  27.418  0.00  0.00    +0.045 C 
ATOM      6  C   UNL     1       1.396  -9.427  26.977  0.00  0.00    +0.034 C 
ATOM      7  C   UNL     1       1.638  -9.102  25.600  0.00  0.00    +0.229 C 
ATOM      8  O   UNL     1       1.533  -7.911  25.177  0.00  0.00    -0.284 OA
ENDROOT
BRANCH   6   9
ATOM      9  C   UNL     1       1.017  -8.396  27.959  0.00  0.00    +0.090 C 
ATOM     10  S   UNL     1      -0.654  -7.723  27.583  0.00  0.00    -0.118 S 
ATOM     11  C   UNL     1      -0.195  -5.942  27.648  0.00  0.00    +0.128 C 
ATOM     12  N   UNL     1       1.064  -6.056  28.403  0.00  0.00    -0.287 NA
ATOM     13  C   UNL     1       1.818  -7.102  27.763  0.00  0.00    +0.085 C 
ATOM     14  H   UNL     1       0.873  -6.300  29.375  0.00  0.00    +0.124 HD
ENDBRANCH   6   9
BRANCH   1  15
ATOM     15  O   UNL     1       2.249  -9.877  23.348  0.00  0.00    -0.453 OA
BRANCH  15  21
ATOM     16  N   UNL     1       3.120  -8.692  21.569  0.00  0.00    -0.166 NA
ATOM     17  C   UNL     1       4.145  -7.768  21.189  0.00  0.00    +0.127 C 
ATOM     18  C   UNL     1       5.489  -8.158  21.797  0.00  0.00    +0.162 C 
ATOM     19  O   UNL     1       5.479  -9.563  21.854  0.00  0.00    -0.347 OA
ATOM     20  C   UNL     1       4.631  -9.992  22.870  0.00  0.00    +0.205 C 
ATOM     21  C   UNL     1       3.360  -9.152  22.918  0.00  0.00    +0.274 C 
BRANCH  16  22
ATOM     22  N   UNL     1       2.954  -9.723  20.666  0.00  0.00    -0.254 N 
ATOM     23  H   UNL     1       3.690 -10.356  20.503  0.00  0.00    +0.168 HD
BRANCH  22  25
ATOM     24  S   UNL     1       0.612  -8.695  20.068  0.00  0.00    -0.016 S 
ATOM     25  C   UNL     1       1.731  -9.871  19.976  0.00  0.00    +0.164 C 
BRANCH  25  26
ATOM     26  N   UNL     1       1.469 -11.025  19.210  0.00  0.00    -0.217 N 
ATOM     27  H   UNL     1       0.672 -11.034  18.631  0.00  0.00    +0.176 HD
BRANCH  26  28
ATOM     28  N   UNL     1       2.291 -12.162  19.234  0.00  0.00    -0.177 NA
ATOM     29  C   UNL     1       2.177 -13.029  20.172  0.00  0.00    +0.140 C 
ENDBRANCH  26  28
ENDBRANCH  25  26
ENDBRANCH  22  25
ENDBRANCH  16  22
ENDBRANCH  15  21
ENDBRANCH   1  15
BRANCH   2  30
ATOM     30  O   UNL     1       2.490 -12.490  24.223  0.00  0.00    -0.451 OA
BRANCH  30  31
ATOM     31  C   UNL     1       1.477 -13.388  23.925  0.00  0.00    +0.124 C 
ATOM     32  C   UNL     1       1.816 -14.651  23.743  0.00  0.00    +0.032 C 
ATOM     33  C   UNL     1       0.707 -15.584  23.432  0.00  0.00    +0.035 C 
ATOM     34  C   UNL     1      -0.257 -15.026  22.440  0.00  0.00    +0.006 C 
ATOM     35  C   UNL     1      -0.482 -13.559  22.535  0.00  0.00    +0.008 C 
ATOM     36  C   UNL     1       0.042 -12.941  23.814  0.00  0.00    +0.065 C 
BRANCH  32  37
ATOM     37  S   UNL     1       3.399 -15.174  23.860  0.00  0.00    -0.112 S 
ATOM     38  C   UNL     1       4.588 -14.904  22.542  0.00  0.00    +0.030 C 
ATOM     39  C   UNL     1       5.653 -14.451  23.153  0.00  0.00    +0.007 C 
ATOM     40  C   UNL     1       5.610 -14.300  24.559  0.00  0.00    +0.007 C 
ATOM     41  C   UNL     1       4.517 -14.616  25.188  0.00  0.00    +0.030 C 
ENDBRANCH  32  37
ENDBRANCH  30  31
ENDBRANCH   2  30
TORSDOF 10
REMARK  Name = =
REMARK  10 active torsions:
REMARK  status: ('A' for Active; 'I' for Inactive)
REMARK    1  A    between atoms: C_1  and  O_14
REMARK    2  A    between atoms: C_2  and  O_27
REMARK    3  A    between atoms: C_6  and  C_9
REMARK    4  A    between atoms: O_14  and  C_20
REMARK    5  A    between atoms: N_15  and  N_21
REMARK    6  A    between atoms: N_21  and  C_23
REMARK    7  A    between atoms: C_23  and  N_24
REMARK    8  A    between atoms: N_24  and  N_25
REMARK    9  A    between atoms: O_27  and  C_28
REMARK   10  A    between atoms: C_29  and  S_34
REMARK                            x       y       z     vdW  Elec       q    Type
REMARK                         _______ _______ _______ _____ _____    ______ ____
ROOT
ATOM      1  H   UNK     1       3.406 -16.980  24.081  0.00  0.00    +0.000 HD
ENDROOT
TORSDOF 0
