REMARK  Name = =
REMARK  1 active torsions:
REMARK  status: ('A' for Active; 'I' for Inactive)
REMARK    1  A    between atoms: C_1  and  S_6
REMARK                            x       y       z     vdW  Elec       q    Type
REMARK                         _______ _______ _______ _____ _____    ______ ____
ROOT
ATOM      1  C   UNL     1      62.041 160.348  41.199  0.00  0.00    +0.204 A 
ATOM      2  N   UNL     1      60.991 161.181  41.107  0.00  0.00    -0.234 N 
ATOM      3  N   UNL     1      60.034 160.418  40.614  0.00  0.00    -0.046 NA
ATOM      4  N   UNL     1      60.441 159.187  40.405  0.00  0.00    -0.022 NA
ATOM      5  N   UNL     1      61.699 159.128  40.767  0.00  0.00    -0.102 NA
ATOM      6  H   UNL     1      60.946 162.134  41.350  0.00  0.00    +0.193 HD
ENDROOT
BRANCH   1   7
ATOM      7  S   UNL     1      63.660 160.830  41.815  0.00  0.00    -0.102 S 
ATOM      8  H   UNL     1      63.639 162.144  42.164  0.00  0.00    +0.110 HD
ENDBRANCH   1   7
TORSDOF 1
