REMARK  Name = =
REMARK  0 active torsions:
REMARK  status: ('A' for Active; 'I' for Inactive)
REMARK                            x       y       z     vdW  Elec       q    Type
REMARK                         _______ _______ _______ _____ _____    ______ ____
ROOT
ATOM      1  C   UNL     1      58.782 159.320  38.464  0.00  0.00    +0.119 C 
ATOM      2  N   UNL     1      59.423 158.816  39.524  0.00  0.00    -0.241 NA
ATOM      3  C   UNL     1      60.168 159.633  40.304  0.00  0.00    +0.099 C 
ATOM      4  C   UNL     1      60.240 160.968  39.972  0.00  0.00    +0.099 C 
ATOM      5  N   UNL     1      59.591 161.463  38.904  0.00  0.00    -0.241 NA
ATOM      6  C   UNL     1      58.853 160.651  38.134  0.00  0.00    +0.119 C 
ATOM      7  C   UNL     1      61.013 161.780  40.791  0.00  0.00    +0.021 C 
ATOM      8  C   UNL     1      61.697 161.324  41.896  0.00  0.00    +0.002 C 
ATOM      9  C   UNL     1      61.591 159.978  42.184  0.00  0.00    +0.002 C 
ATOM     10  C   UNL     1      60.833 159.122  41.399  0.00  0.00    +0.021 C 
ENDROOT
TORSDOF 0
