REMARK  Name = =
REMARK  0 active torsions:
REMARK  status: ('A' for Active; 'I' for Inactive)
REMARK                            x       y       z     vdW  Elec       q    Type
REMARK                         _______ _______ _______ _____ _____    ______ ____
ROOT
ATOM      1  C   UNL     1      53.422 154.371  25.009  0.00  0.00    +0.029 C 
ATOM      2  C   UNL     1      52.937 154.968  26.291  0.00  0.00    -0.023 C 
ATOM      3  C   UNL     1      52.273 154.104  27.137  0.00  0.00    -0.023 C 
ATOM      4  C   UNL     1      51.810 154.596  28.327  0.00  0.00    +0.036 C 
ATOM      5  C   UNL     1      52.000 155.921  28.676  0.00  0.00    +0.176 C 
ATOM      6  C   UNL     1      52.665 156.782  27.828  0.00  0.00    +0.176 C 
ATOM      7  C   UNL     1      53.125 156.269  26.633  0.00  0.00    +0.036 C 
ATOM      8  O   UNL     1      52.715 158.056  28.426  0.00  0.00    -0.435 OA
ATOM      9  C   UNL     1      51.791 158.062  29.511  0.00  0.00    +0.429 C 
ATOM     10  O   UNL     1      51.648 156.682  29.791  0.00  0.00    -0.435 OA
ATOM     11  C   UNL     1      52.093 152.692  26.716  0.00  0.00    +0.029 C 
ATOM     12  C   UNL     1      53.408 152.176  26.232  0.00  0.00    +0.037 C 
ATOM     13  C   UNL     1      54.196 153.134  25.413  0.00  0.00    +0.037 C 
ATOM     14  C   UNL     1      54.669 152.309  24.261  0.00  0.00    +0.143 C 
ATOM     15  O   UNL     1      54.461 150.971  24.629  0.00  0.00    -0.354 OA
ATOM     16  C   UNL     1      53.293 150.958  25.375  0.00  0.00    +0.143 C 
ENDROOT
TORSDOF 0
