REMARK  Name = =
REMARK  1 active torsions:
REMARK  status: ('A' for Active; 'I' for Inactive)
REMARK    1  A    between atoms: C_1  and  C_22
REMARK                            x       y       z     vdW  Elec       q    Type
REMARK                         _______ _______ _______ _____ _____    ______ ____
ROOT
ATOM      1  C   UNL     1      53.296 154.342  24.810  0.00  0.00    +0.101 C 
ATOM      2  C   UNL     1      52.926 154.756  26.169  0.00  0.00    -0.015 C 
ATOM      3  C   UNL     1      52.771 153.882  27.201  0.00  0.00    -0.022 C 
ATOM      4  C   UNL     1      52.416 154.326  28.489  0.00  0.00    +0.036 C 
ATOM      5  C   UNL     1      52.217 155.666  28.727  0.00  0.00    +0.176 C 
ATOM      6  C   UNL     1      52.375 156.546  27.682  0.00  0.00    +0.176 C 
ATOM      7  C   UNL     1      52.728 156.092  26.411  0.00  0.00    +0.036 C 
ATOM      8  O   UNL     1      52.132 157.834  28.129  0.00  0.00    -0.435 OA
ATOM      9  C   UNL     1      52.198 157.813  29.538  0.00  0.00    +0.429 C 
ATOM     10  O   UNL     1      51.871 156.450  29.824  0.00  0.00    -0.435 OA
ATOM     11  C   UNL     1      52.967 152.446  27.004  0.00  0.00    +0.029 C 
ATOM     12  C   UNL     1      52.741 152.018  25.548  0.00  0.00    +0.037 C 
ATOM     13  C   UNL     1      53.602 152.902  24.632  0.00  0.00    +0.045 C 
ATOM     14  C   UNL     1      54.966 152.478  25.114  0.00  0.00    +0.143 C 
ATOM     15  O   UNL     1      54.873 151.190  25.577  0.00  0.00    -0.354 OA
ATOM     16  C   UNL     1      53.572 150.728  25.410  0.00  0.00    +0.143 C 
ENDROOT
BRANCH   1  22
ATOM     17  N   UNL     1      55.060 154.901  23.099  0.00  0.00    -0.279 N 
ATOM     18  C   UNL     1      54.719 153.845  22.187  0.00  0.00    +0.093 C 
ATOM     19  C   UNL     1      55.727 153.915  21.085  0.00  0.00    +0.023 C 
ATOM     20  C   UNL     1      56.113 155.370  21.047  0.00  0.00    +0.023 C 
ATOM     21  C   UNL     1      56.183 155.674  22.541  0.00  0.00    +0.093 C 
ATOM     22  C   UNL     1      54.425 155.174  24.329  0.00  0.00    +0.229 C 
ATOM     23  O   UNL     1      54.829 156.147  25.032  0.00  0.00    -0.275 OA
ENDBRANCH   1  22
TORSDOF 1
