REMARK  Name = =
REMARK  3 active torsions:
REMARK  status: ('A' for Active; 'I' for Inactive)
REMARK    1  A    between atoms: C_1  and  S_12
REMARK    2  A    between atoms: C_9  and  O_11
REMARK    3  A    between atoms: S_12  and  C_13
REMARK                            x       y       z     vdW  Elec       q    Type
REMARK                         _______ _______ _______ _____ _____    ______ ____
ROOT
ATOM      1  C   UNL     1      61.800 163.206  39.203  0.00  0.00    +0.077 C 
ATOM      2  C   UNL     1      63.291 163.125  39.220  0.00  0.00    +0.016 C 
ATOM      3  C   UNL     1      63.995 164.213  38.465  0.00  0.00    +0.006 C 
ATOM      4  C   UNL     1      63.139 164.768  37.332  0.00  0.00    +0.026 C 
ATOM      5  C   UNL     1      61.871 165.304  37.913  0.00  0.00    -0.022 C 
ATOM      6  C   UNL     1      61.241 164.500  38.837  0.00  0.00    -0.016 C 
ATOM      7  C   UNL     1      60.066 164.919  39.426  0.00  0.00    -0.001 C 
ATOM      8  C   UNL     1      59.503 166.144  39.100  0.00  0.00    +0.036 C 
ATOM      9  C   UNL     1      60.163 166.916  38.173  0.00  0.00    +0.133 C 
ATOM     10  C   UNL     1      61.345 166.530  37.562  0.00  0.00    +0.032 C 
ENDROOT
BRANCH   9  11
ATOM     11  O   UNL     1      59.648 168.156  37.804  0.00  0.00    -0.506 OA
ATOM     12  H   UNL     1      58.851 168.465  38.187  0.00  0.00    +0.292 HD
ENDBRANCH   9  11
BRANCH   1  13
ATOM     13  S   UNL     1      61.111 162.650  40.799  0.00  0.00    -0.071 S 
BRANCH  13  14
ATOM     14  C   UNL     1      60.930 160.880  40.836  0.00  0.00    +0.208 A 
ATOM     15  N   UNL     1      59.897 160.156  40.381  0.00  0.00    -0.234 N 
ATOM     16  N   UNL     1      60.186 158.899  40.610  0.00  0.00    -0.046 NA
ATOM     17  N   UNL     1      61.363 158.766  41.196  0.00  0.00    -0.022 NA
ATOM     18  N   UNL     1      61.830 160.018  41.337  0.00  0.00    -0.102 NA
ATOM     19  H   UNL     1      59.079 160.502  39.957  0.00  0.00    +0.193 HD
ENDBRANCH  13  14
ENDBRANCH   1  13
TORSDOF 3
