REMARK  Name = =
REMARK  3 active torsions:
REMARK  status: ('A' for Active; 'I' for Inactive)
REMARK    1  A    between atoms: C_4  and  C_24
REMARK    2  A    between atoms: C_6  and  C_8
REMARK    3  A    between atoms: C_27  and  O_31
REMARK                            x       y       z     vdW  Elec       q    Type
REMARK                         _______ _______ _______ _____ _____    ______ ____
ROOT
ATOM      1  N   UNL     1      51.083 156.335  28.931  0.00  0.00    -0.279 N 
ATOM      2  C   UNL     1      49.761 156.658  29.428  0.00  0.00    +0.094 C 
ATOM      3  C   UNL     1      49.863 158.023  30.072  0.00  0.00    +0.028 C 
ATOM      4  C   UNL     1      51.125 158.559  29.451  0.00  0.00    +0.044 C 
ATOM      5  C   UNL     1      52.001 157.294  29.483  0.00  0.00    +0.098 C 
ATOM      6  C   UNL     1      51.396 155.264  28.075  0.00  0.00    +0.229 C 
ATOM      7  O   UNL     1      50.506 154.494  27.691  0.00  0.00    -0.275 OA
ENDROOT
BRANCH   6   8
ATOM      8  C   UNL     1      52.800 155.059  27.633  0.00  0.00    +0.101 C 
ATOM      9  C   UNL     1      52.896 153.744  26.973  0.00  0.00    -0.015 C 
ATOM     10  C   UNL     1      53.513 153.594  25.780  0.00  0.00    -0.022 C 
ATOM     11  C   UNL     1      53.563 152.333  25.220  0.00  0.00    +0.036 C 
ATOM     12  C   UNL     1      53.004 151.221  25.837  0.00  0.00    +0.176 C 
ATOM     13  C   UNL     1      52.385 151.396  27.042  0.00  0.00    +0.176 C 
ATOM     14  C   UNL     1      52.331 152.657  27.610  0.00  0.00    +0.036 C 
ATOM     15  O   UNL     1      51.904 150.158  27.470  0.00  0.00    -0.435 OA
ATOM     16  C   UNL     1      51.997 149.263  26.375  0.00  0.00    +0.429 C 
ATOM     17  O   UNL     1      52.927 149.880  25.478  0.00  0.00    -0.435 OA
ATOM     18  C   UNL     1      54.161 154.684  25.016  0.00  0.00    +0.029 C 
ATOM     19  C   UNL     1      54.363 155.918  25.857  0.00  0.00    +0.037 C 
ATOM     20  C   UNL     1      53.244 156.192  26.792  0.00  0.00    +0.045 C 
ATOM     21  C   UNL     1      52.196 156.745  25.855  0.00  0.00    +0.143 C 
ATOM     22  O   UNL     1      52.869 157.398  24.846  0.00  0.00    -0.354 OA
ATOM     23  C   UNL     1      54.202 157.101  24.887  0.00  0.00    +0.143 C 
ENDBRANCH   6   8
BRANCH   4  24
ATOM     24  C   UNL     1      51.739 159.652  30.204  0.00  0.00    -0.020 C 
ATOM     25  C   UNL     1      51.970 160.840  29.539  0.00  0.00    +0.006 C 
ATOM     26  C   UNL     1      52.543 161.936  30.155  0.00  0.00    +0.068 C 
ATOM     27  C   UNL     1      52.908 161.864  31.484  0.00  0.00    +0.140 C 
ATOM     28  C   UNL     1      52.677 160.675  32.153  0.00  0.00    +0.037 C 
ATOM     29  C   UNL     1      52.104 159.594  31.521  0.00  0.00    -0.001 C 
ATOM     30 BR   UNL     1      52.847 163.559  29.202  0.00  0.00    -0.046 Br
BRANCH  27  31
ATOM     31  O   UNL     1      53.492 162.938  32.163  0.00  0.00    -0.505 OA
ATOM     32  H   UNL     1      53.651 163.745  31.715  0.00  0.00    +0.292 HD
ENDBRANCH  27  31
ENDBRANCH   4  24
TORSDOF 3
