REMARK  Name = =
REMARK  4 active torsions:
REMARK  status: ('A' for Active; 'I' for Inactive)
REMARK    1  A    between atoms: S_1  and  C_2
REMARK    2  A    between atoms: S_1  and  N_13
REMARK    3  A    between atoms: S_1  and  C_20
REMARK    4  A    between atoms: C_10  and  O_12
REMARK                            x       y       z     vdW  Elec       q    Type
REMARK                         _______ _______ _______ _____ _____    ______ ____
ROOT
ATOM      1  S   UNL     1      60.938 162.551  39.287  0.00  0.00    -0.105 S 
ATOM      2  H   UNL     1      60.381 163.421  40.171  0.00  0.00    +0.109 HD
ENDROOT
BRANCH   1   3
ATOM      3  C   UNL     1      60.841 163.372  37.875  0.00  0.00    +0.072 C 
ATOM      4  C   UNL     1      59.707 163.007  36.930  0.00  0.00    +0.016 C 
ATOM      5  C   UNL     1      60.128 163.534  35.550  0.00  0.00    +0.006 C 
ATOM      6  C   UNL     1      59.918 165.024  35.597  0.00  0.00    +0.026 C 
ATOM      7  C   UNL     1      60.343 165.590  36.880  0.00  0.00    -0.022 C 
ATOM      8  C   UNL     1      60.784 164.858  37.980  0.00  0.00    -0.016 C 
ATOM      9  C   UNL     1      61.159 165.496  39.130  0.00  0.00    -0.001 C 
ATOM     10  C   UNL     1      61.126 166.865  39.268  0.00  0.00    +0.036 C 
ATOM     11  C   UNL     1      60.694 167.596  38.195  0.00  0.00    +0.133 C 
ATOM     12  C   UNL     1      60.311 166.981  37.026  0.00  0.00    +0.032 C 
BRANCH  11  13
ATOM     13  O   UNL     1      60.644 168.982  38.291  0.00  0.00    -0.506 OA
ATOM     14  H   UNL     1      60.904 169.406  39.085  0.00  0.00    +0.292 HD
ENDBRANCH  11  13
ENDBRANCH   1   3
BRANCH   1  15
ATOM     15  N   UNL     1      60.032 161.204  39.449  0.00  0.00    -0.222 N 
ATOM     16  C   UNL     1      60.338 159.791  39.215  0.00  0.00    +0.191 C 
ATOM     17  C   UNL     1      59.039 159.278  38.713  0.00  0.00    +0.251 C 
ATOM     18  O   UNL     1      58.878 158.406  37.820  0.00  0.00    -0.273 OA
ATOM     19  N   UNL     1      58.040 159.968  39.438  0.00  0.00    -0.237 N 
ATOM     20  C   UNL     1      58.672 161.162  39.889  0.00  0.00    +0.318 C 
ATOM     21  O   UNL     1      58.062 162.038  40.586  0.00  0.00    -0.251 OA
ATOM     22  H   UNL     1      57.111 159.685  39.596  0.00  0.00    +0.159 HD
ENDBRANCH   1  15
BRANCH   1  23
ATOM     23  C   UNL     1      62.610 162.194  39.687  0.00  0.00    +0.203 A 
ATOM     24  N   UNL     1      63.170 162.206  40.899  0.00  0.00    -0.234 N 
ATOM     25  N   UNL     1      64.432 161.884  40.777  0.00  0.00    -0.046 NA
ATOM     26  N   UNL     1      64.705 161.661  39.501  0.00  0.00    -0.022 NA
ATOM     27  N   UNL     1      63.580 161.851  38.820  0.00  0.00    -0.102 NA
ATOM     28  H   UNL     1      62.710 162.421  41.743  0.00  0.00    +0.193 HD
ENDBRANCH   1  23
TORSDOF 4
