REMARK  Name = =
REMARK  5 active torsions:
REMARK  status: ('A' for Active; 'I' for Inactive)
REMARK    1  A    between atoms: C_1  and  C_11
REMARK    2  A    between atoms: C_1  and  S_16
REMARK    3  A    between atoms: C_9  and  O_29
REMARK    4  A    between atoms: S_16  and  N_17
REMARK    5  A    between atoms: S_16  and  C_24
REMARK                            x       y       z     vdW  Elec       q    Type
REMARK                         _______ _______ _______ _____ _____    ______ ____
ROOT
ATOM      1  C   UNL     1      59.626 162.101  38.997  0.00  0.00    +0.085 C 
ATOM      2  C   UNL     1      59.085 161.111  37.864  0.00  0.00    +0.017 C 
ATOM      3  C   UNL     1      58.833 159.762  38.492  0.00  0.00    +0.006 C 
ATOM      4  C   UNL     1      60.055 159.167  39.111  0.00  0.00    +0.026 C 
ATOM      5  C   UNL     1      61.147 160.183  39.271  0.00  0.00    -0.022 C 
ATOM      6  C   UNL     1      60.969 161.547  39.192  0.00  0.00    -0.015 C 
ATOM      7  C   UNL     1      62.039 162.399  39.311  0.00  0.00    -0.001 C 
ATOM      8  C   UNL     1      63.298 161.885  39.515  0.00  0.00    +0.036 C 
ATOM      9  C   UNL     1      63.511 160.528  39.601  0.00  0.00    +0.133 C 
ATOM     10  C   UNL     1      62.421 159.700  39.476  0.00  0.00    +0.032 C 
ENDROOT
BRANCH   1  11
ATOM     11  C   UNL     1      58.712 161.710  40.124  0.00  0.00    +0.128 C 
ATOM     12  O   UNL     1      57.353 161.804  39.699  0.00  0.00    -0.355 OA
ATOM     13  C   UNL     1      56.593 161.593  40.828  0.00  0.00    +0.142 C 
ATOM     14  C   UNL     1      57.478 161.799  42.041  0.00  0.00    +0.035 C 
ATOM     15  C   UNL     1      58.623 162.588  41.324  0.00  0.00    +0.033 C 
ENDBRANCH   1  11
BRANCH   1  16
ATOM     16  S   UNL     1      59.514 163.616  38.525  0.00  0.00    -0.103 S 
ATOM     17  H   UNL     1      58.235 163.513  38.975  0.00  0.00    +0.109 HD
BRANCH  16  18
ATOM     18  N   UNL     1      60.068 164.870  39.424  0.00  0.00    -0.222 N 
ATOM     19  C   UNL     1      60.421 165.114  40.813  0.00  0.00    +0.191 C 
ATOM     20  C   UNL     1      61.426 166.212  40.816  0.00  0.00    +0.251 C 
ATOM     21  O   UNL     1      62.276 166.401  41.681  0.00  0.00    -0.273 OA
ATOM     22  N   UNL     1      61.177 166.935  39.655  0.00  0.00    -0.237 N 
ATOM     23  C   UNL     1      60.362 166.155  38.800  0.00  0.00    +0.318 C 
ATOM     24  O   UNL     1      59.993 166.580  37.690  0.00  0.00    -0.251 OA
ATOM     25  H   UNL     1      61.512 167.840  39.460  0.00  0.00    +0.159 HD
ENDBRANCH  16  18
BRANCH  16  26
ATOM     26  C   UNL     1      59.451 163.977  36.904  0.00  0.00    +0.203 A 
ATOM     27  N   UNL     1      60.187 163.422  35.893  0.00  0.00    -0.234 N 
ATOM     28  N   UNL     1      59.855 163.995  34.734  0.00  0.00    -0.046 NA
ATOM     29  N   UNL     1      58.939 164.892  34.969  0.00  0.00    -0.022 NA
ATOM     30  N   UNL     1      58.700 164.881  36.256  0.00  0.00    -0.102 NA
ATOM     31  H   UNL     1      60.858 162.710  36.003  0.00  0.00    +0.193 HD
ENDBRANCH  16  26
ENDBRANCH   1  16
BRANCH   9  32
ATOM     32  O   UNL     1      64.795 160.067  39.809  0.00  0.00    -0.506 OA
ATOM     33  H   UNL     1      65.504 160.675  39.887  0.00  0.00    +0.292 HD
ENDBRANCH   9  32
TORSDOF 5
