REMARK  Name = =
REMARK  6 active torsions:
REMARK  status: ('A' for Active; 'I' for Inactive)
REMARK    1  A    between atoms: C_1  and  C_11
REMARK    2  A    between atoms: C_1  and  S_23
REMARK    3  A    between atoms: C_9  and  O_36
REMARK    4  A    between atoms: C_13  and  C_16
REMARK    5  A    between atoms: S_23  and  N_24
REMARK    6  A    between atoms: S_23  and  C_31
REMARK                            x       y       z     vdW  Elec       q    Type
REMARK                         _______ _______ _______ _____ _____    ______ ____
ROOT
ATOM      1  C   UNL     1      61.568 164.742  38.756  0.00  0.00    +0.085 C 
ATOM      2  C   UNL     1      61.601 165.255  37.325  0.00  0.00    +0.017 C 
ATOM      3  C   UNL     1      61.482 166.721  37.208  0.00  0.00    +0.006 C 
ATOM      4  C   UNL     1      60.451 167.410  38.000  0.00  0.00    +0.026 C 
ATOM      5  C   UNL     1      59.884 166.553  39.050  0.00  0.00    -0.022 C 
ATOM      6  C   UNL     1      60.386 165.340  39.409  0.00  0.00    -0.015 C 
ATOM      7  C   UNL     1      59.698 164.688  40.447  0.00  0.00    -0.001 C 
ATOM      8  C   UNL     1      58.590 165.231  41.064  0.00  0.00    +0.036 C 
ATOM      9  C   UNL     1      58.115 166.452  40.676  0.00  0.00    +0.133 C 
ATOM     10  C   UNL     1      58.750 167.113  39.679  0.00  0.00    +0.032 C 
ENDROOT
BRANCH   1  11
ATOM     11  C   UNL     1      61.306 163.234  38.688  0.00  0.00    +0.128 C 
ATOM     12  O   UNL     1      60.193 162.993  39.456  0.00  0.00    -0.356 OA
ATOM     13  C   UNL     1      59.507 161.933  38.885  0.00  0.00    +0.134 C 
ATOM     14  C   UNL     1      59.630 162.151  37.399  0.00  0.00    +0.033 C 
ATOM     15  C   UNL     1      61.006 162.767  37.294  0.00  0.00    +0.033 C 
BRANCH  13  16
ATOM     16  C   UNL     1      60.113 160.626  39.336  0.00  0.00    +0.160 C 
ATOM     17  S   UNL     1      60.272 160.750  41.170  0.00  0.00    -0.046 S 
ATOM     18  C   UNL     1      58.719 159.971  41.557  0.00  0.00    +0.279 C 
ATOM     19  O   UNL     1      58.223 159.828  42.676  0.00  0.00    -0.263 OA
ATOM     20  N   UNL     1      58.188 159.560  40.319  0.00  0.00    -0.246 N 
ATOM     21  C   UNL     1      59.122 159.513  39.277  0.00  0.00    +0.241 C 
ATOM     22  O   UNL     1      59.179 158.639  38.340  0.00  0.00    -0.274 OA
ATOM     23  H   UNL     1      57.240 159.325  40.197  0.00  0.00    +0.158 HD
ENDBRANCH  13  16
ENDBRANCH   1  11
BRANCH   1  24
ATOM     24  S   UNL     1      63.064 164.985  39.489  0.00  0.00    -0.103 S 
ATOM     25  H   UNL     1      63.103 166.300  39.835  0.00  0.00    +0.109 HD
BRANCH  24  26
ATOM     26  N   UNL     1      64.299 164.588  38.397  0.00  0.00    -0.222 N 
ATOM     27  C   UNL     1      64.151 164.496  36.958  0.00  0.00    +0.191 C 
ATOM     28  C   UNL     1      65.466 165.076  36.495  0.00  0.00    +0.251 C 
ATOM     29  O   UNL     1      65.681 165.811  35.503  0.00  0.00    -0.273 OA
ATOM     30  N   UNL     1      66.413 164.591  37.451  0.00  0.00    -0.237 N 
ATOM     31  C   UNL     1      65.669 164.285  38.645  0.00  0.00    +0.318 C 
ATOM     32  O   UNL     1      66.090 163.835  39.739  0.00  0.00    -0.251 OA
ATOM     33  H   UNL     1      67.383 164.487  37.319  0.00  0.00    +0.159 HD
ENDBRANCH  24  26
BRANCH  24  34
ATOM     34  C   UNL     1      63.291 164.099  40.920  0.00  0.00    +0.203 A 
ATOM     35  N   UNL     1      63.460 164.646  42.148  0.00  0.00    -0.234 N 
ATOM     36  N   UNL     1      63.627 163.689  43.034  0.00  0.00    -0.046 NA
ATOM     37  N   UNL     1      63.571 162.522  42.425  0.00  0.00    -0.022 NA
ATOM     38  N   UNL     1      63.368 162.775  41.145  0.00  0.00    -0.102 NA
ATOM     39  H   UNL     1      63.458 165.610  42.346  0.00  0.00    +0.193 HD
ENDBRANCH  24  34
ENDBRANCH   1  24
BRANCH   9  40
ATOM     40  O   UNL     1      56.988 167.004  41.303  0.00  0.00    -0.506 OA
ATOM     41  H   UNL     1      56.558 166.536  41.992  0.00  0.00    +0.292 HD
ENDBRANCH   9  40
TORSDOF 6
