MODEL 1
REMARK VINA RESULT:    -6.210      0.000      0.000
REMARK INTER + INTRA:         -11.710
REMARK INTER:                  -9.659
REMARK INTRA:                  -2.051
REMARK UNBOUND:                -2.051
REMARK  Name = =
REMARK  10 active torsions:
REMARK  status: ('A' for Active; 'I' for Inactive)
REMARK    1  A    between atoms: S_1  and  C_2
REMARK    2  A    between atoms: S_1  and  C_20
REMARK    3  A    between atoms: S_1  and  C_24
REMARK    4  A    between atoms: C_20  and  N_22
REMARK    5  A    between atoms: N_22  and  O_23
REMARK    6  A    between atoms: C_24  and  N_26
REMARK    7  A    between atoms: N_26  and  S_27
REMARK    8  A    between atoms: N_26  and  O_30
REMARK    9  A    between atoms: O_30  and  S_31
REMARK   10  A    between atoms: S_31  and  N_34
REMARK                            x       y       z     vdW  Elec       q    Type
REMARK                         _______ _______ _______ _____ _____    ______ ____
ROOT
ATOM      1  S   UNL     1      61.397 164.390  37.956  0.00  0.00    -0.144 S 
ATOM      2  H   UNL     1      60.931 163.600  36.952  0.00  0.00    +0.096 HD
ENDROOT
BRANCH   1   3
ATOM      3  C   UNL     1      61.302 163.444  39.293  0.00  0.00    +0.079 C 
ATOM      4  C   UNL     1      59.976 163.263  39.977  0.00  0.00    +0.013 C 
ATOM      5  C   UNL     1      60.129 162.760  41.394  0.00  0.00    +0.003 C 
ATOM      6  C   UNL     1      61.333 161.884  41.514  0.00  0.00    +0.022 C 
ATOM      7  C   UNL     1      61.750 161.219  40.247  0.00  0.00    +0.062 C 
ATOM      8  C   UNL     1      63.061 160.513  40.482  0.00  0.00    +0.025 C 
ATOM      9  C   UNL     1      63.307 159.965  41.825  0.00  0.00    +0.069 C 
ATOM     10  N   UNL     1      62.619 160.535  42.930  0.00  0.00    -0.298 NA
ATOM     11  C   UNL     1      61.216 160.844  42.592  0.00  0.00    +0.059 C 
ATOM     12  C   UNL     1      60.582 159.548  42.232  0.00  0.00    +0.042 C 
ATOM     13  C   UNL     1      60.135 159.474  40.803  0.00  0.00    -0.022 C 
ATOM     14  C   UNL     1      60.669 160.300  39.876  0.00  0.00    +0.011 C 
ATOM     15  C   UNL     1      60.330 160.371  38.570  0.00  0.00    +0.134 C 
ATOM     16  C   UNL     1      59.337 159.504  38.150  0.00  0.00    +0.037 C 
ATOM     17  C   UNL     1      58.751 158.624  39.068  0.00  0.00    +0.003 C 
ATOM     18  C   UNL     1      59.158 158.615  40.407  0.00  0.00    -0.004 C 
ATOM     19  O   UNL     1      61.129 161.374  37.975  0.00  0.00    -0.478 OA
ATOM     20  C   UNL     1      61.846 162.063  39.022  0.00  0.00    +0.178 C 
ATOM     21  H   UNL     1      63.090 161.397  43.206  0.00  0.00    +0.123 HD
ENDBRANCH   1   3
BRANCH   1  22
ATOM     22  C   UNL     1      63.235 165.070  38.103  0.00  0.00    +0.116 C 
ATOM     23  S   UNL     1      63.594 165.768  39.469  0.00  0.00    -0.027 S 
BRANCH  22  24
ATOM     24  N   UNL     1      64.008 164.853  36.974  0.00  0.00    -0.217 N 
ATOM     25  H   UNL     1      64.926 164.501  37.036  0.00  0.00    +0.180 HD
BRANCH  24  26
ATOM     26  O   UNL     1      63.431 165.154  35.761  0.00  0.00    -0.297 OA
ATOM     27  H   UNL     1      62.885 164.407  35.469  0.00  0.00    +0.241 HD
ENDBRANCH  24  26
ENDBRANCH  22  24
ENDBRANCH   1  22
BRANCH   1  28
ATOM     28  C   UNL     1      60.572 165.775  37.799  0.00  0.00    +0.146 C 
ATOM     29  S   UNL     1      60.091 166.713  39.046  0.00  0.00    -0.025 S 
BRANCH  28  30
ATOM     30  N   UNL     1      60.219 166.311  36.494  0.00  0.00    -0.047 N 
BRANCH  30  31
ATOM     31  S   UNL     1      59.900 165.214  35.222  0.00  0.00    +0.060 S 
ATOM     32  O   UNL     1      61.090 164.933  34.362  0.00  0.00    -0.156 OA
ATOM     33  O   UNL     1      58.737 165.716  34.412  0.00  0.00    -0.156 OA
ATOM     34  H   UNL     1      59.584 164.017  35.784  0.00  0.00    +0.236 HD
ENDBRANCH  30  31
BRANCH  30  35
ATOM     35  O   UNL     1      60.150 167.627  36.316  0.00  0.00    -0.103 OA
BRANCH  35  36
ATOM     36  S   UNL     1      61.544 168.284  35.654  0.00  0.00    +0.085 S 
ATOM     37  O   UNL     1      61.497 169.772  35.930  0.00  0.00    -0.051 OA
ATOM     38  O   UNL     1      62.793 167.780  36.323  0.00  0.00    -0.051 OA
BRANCH  36  39
ATOM     39  N   UNL     1      61.644 167.999  33.975  0.00  0.00    -0.176 N 
ATOM     40  C   UNL     1      60.576 168.407  33.132  0.00  0.00    +0.319 C 
ATOM     41  O   UNL     1      59.542 168.982  33.585  0.00  0.00    -0.264 OA
ATOM     42  H   UNL     1      62.436 167.555  33.594  0.00  0.00    +0.177 HD
ENDBRANCH  36  39
ENDBRANCH  35  36
ENDBRANCH  30  35
ENDBRANCH  28  30
ENDBRANCH   1  28
TORSDOF 10
ENDMDL
