REMARK  Name = =
REMARK  10 active torsions:
REMARK  status: ('A' for Active; 'I' for Inactive)
REMARK    1  A    between atoms: S_1  and  C_2
REMARK    2  A    between atoms: S_1  and  C_20
REMARK    3  A    between atoms: S_1  and  C_24
REMARK    4  A    between atoms: C_20  and  N_22
REMARK    5  A    between atoms: N_22  and  O_23
REMARK    6  A    between atoms: C_24  and  N_26
REMARK    7  A    between atoms: N_26  and  S_27
REMARK    8  A    between atoms: N_26  and  O_30
REMARK    9  A    between atoms: O_30  and  S_31
REMARK   10  A    between atoms: S_31  and  N_34
REMARK                            x       y       z     vdW  Elec       q    Type
REMARK                         _______ _______ _______ _____ _____    ______ ____
ROOT
ATOM      1  S   UNL     1      51.087 157.716  28.910  0.00  0.00    -0.144 S 
ATOM      2  H   UNL     1      50.514 158.262  27.804  0.00  0.00    +0.096 HD
ENDROOT
BRANCH   1   3
ATOM      3  C   UNL     1      51.008 158.906  30.036  0.00  0.00    +0.079 C 
ATOM      4  C   UNL     1      51.217 160.335  29.617  0.00  0.00    +0.013 C 
ATOM      5  C   UNL     1      51.555 161.229  30.788  0.00  0.00    +0.003 C 
ATOM      6  C   UNL     1      50.888 160.742  32.032  0.00  0.00    +0.022 C 
ATOM      7  C   UNL     1      49.648 159.947  31.805  0.00  0.00    +0.062 C 
ATOM      8  C   UNL     1      49.186 159.386  33.126  0.00  0.00    +0.025 C 
ATOM      9  C   UNL     1      49.447 160.186  34.333  0.00  0.00    +0.069 C 
ATOM     10  N   UNL     1      50.519 161.120  34.312  0.00  0.00    -0.298 NA
ATOM     11  C   UNL     1      50.590 161.833  33.022  0.00  0.00    +0.059 C 
ATOM     12  C   UNL     1      49.300 162.559  32.878  0.00  0.00    +0.042 C 
ATOM     13  C   UNL     1      48.467 162.083  31.727  0.00  0.00    -0.022 C 
ATOM     14  C   UNL     1      48.668 160.854  31.200  0.00  0.00    +0.011 C 
ATOM     15  C   UNL     1      48.024 160.318  30.140  0.00  0.00    +0.134 C 
ATOM     16  C   UNL     1      47.062 161.114  29.545  0.00  0.00    +0.037 C 
ATOM     17  C   UNL     1      46.810 162.395  30.052  0.00  0.00    +0.003 C 
ATOM     18  C   UNL     1      47.525 162.878  31.154  0.00  0.00    -0.004 C 
ATOM     19  O   UNL     1      48.553 159.024  29.928  0.00  0.00    -0.478 OA
ATOM     20  C   UNL     1      49.701 158.858  30.788  0.00  0.00    +0.178 C 
ATOM     21  H   UNL     1      51.396 160.622  34.464  0.00  0.00    +0.123 HD
ENDBRANCH   1   3
BRANCH   1  22
ATOM     22  C   UNL     1      50.371 156.190  29.921  0.00  0.00    +0.116 C 
ATOM     23  S   UNL     1      48.925 155.720  29.508  0.00  0.00    -0.027 S 
BRANCH  22  24
ATOM     24  N   UNL     1      51.232 155.702  30.890  0.00  0.00    -0.217 N 
ATOM     25  H   UNL     1      51.968 156.248  31.250  0.00  0.00    +0.180 HD
BRANCH  24  26
ATOM     26  O   UNL     1      51.008 154.415  31.325  0.00  0.00    -0.297 OA
ATOM     27  H   UNL     1      50.244 154.044  30.856  0.00  0.00    +0.241 HD
ENDBRANCH  24  26
ENDBRANCH  22  24
ENDBRANCH   1  22
BRANCH   1  28
ATOM     28  C   UNL     1      52.488 157.099  28.380  0.00  0.00    +0.146 C 
ATOM     29  S   UNL     1      53.959 157.515  28.953  0.00  0.00    -0.025 S 
BRANCH  28  30
ATOM     30  N   UNL     1      52.531 156.078  27.345  0.00  0.00    -0.047 N 
BRANCH  30  31
ATOM     31  S   UNL     1      52.806 154.456  27.812  0.00  0.00    +0.060 S 
ATOM     32  O   UNL     1      51.990 153.466  27.046  0.00  0.00    -0.156 OA
ATOM     33  O   UNL     1      52.591 154.323  29.294  0.00  0.00    -0.156 OA
ATOM     34  H   UNL     1      54.097 154.156  27.508  0.00  0.00    +0.236 HD
ENDBRANCH  30  31
BRANCH  30  35
ATOM     35  O   UNL     1      52.358 156.419  26.072  0.00  0.00    -0.103 OA
BRANCH  35  36
ATOM     36  S   UNL     1      53.448 155.685  25.030  0.00  0.00    +0.085 S 
ATOM     37  O   UNL     1      52.629 154.985  23.966  0.00  0.00    -0.051 OA
ATOM     38  O   UNL     1      54.307 156.681  24.300  0.00  0.00    -0.051 OA
BRANCH  36  39
ATOM     39  N   UNL     1      54.443 154.563  25.842  0.00  0.00    -0.176 N 
ATOM     40  C   UNL     1      55.127 153.566  25.096  0.00  0.00    +0.319 C 
ATOM     41  O   UNL     1      55.025 153.480  23.836  0.00  0.00    -0.264 OA
ATOM     42  H   UNL     1      54.543 154.606  26.821  0.00  0.00    +0.177 HD
ENDBRANCH  36  39
ENDBRANCH  35  36
ENDBRANCH  30  35
ENDBRANCH  28  30
ENDBRANCH   1  28
TORSDOF 10
