REMARK  Name = =
REMARK  3 active torsions:
REMARK  status: ('A' for Active; 'I' for Inactive)
REMARK    1  A    between atoms: C_1  and  N_24
REMARK    2  A    between atoms: C_2  and  C_7
REMARK    3  A    between atoms: C_4  and  C_18
REMARK                            x       y       z     vdW  Elec       q    Type
REMARK                         _______ _______ _______ _____ _____    ______ ____
ROOT
ATOM      1  C   UNL     1     -13.598 -42.939  31.759  0.00  0.00    +0.048 C 
ATOM      2  C   UNL     1     -13.619 -43.302  30.443  0.00  0.00    +0.020 C 
ATOM      3  C   UNL     1     -12.609 -44.141  29.933  0.00  0.00    +0.001 C 
ATOM      4  C   UNL     1     -11.582 -44.622  30.712  0.00  0.00    +0.000 C 
ATOM      5  C   UNL     1     -11.580 -44.245  32.039  0.00  0.00    +0.001 C 
ATOM      6  C   UNL     1     -12.547 -43.430  32.565  0.00  0.00    +0.015 C 
ENDROOT
BRANCH   2   7
ATOM      7  C   UNL     1     -14.637 -42.911  29.503  0.00  0.00    +0.077 C 
ATOM      8  C   UNL     1     -15.957 -42.880  29.790  0.00  0.00    +0.010 C 
ATOM      9  C   UNL     1     -16.881 -42.539  28.808  0.00  0.00    +0.035 C 
ATOM     10  C   UNL     1     -16.395 -42.239  27.548  0.00  0.00    +0.149 C 
ATOM     11  C   UNL     1     -17.313 -41.894  26.550  0.00  0.00    +0.038 C 
ATOM     12  C   UNL     1     -18.649 -41.855  26.817  0.00  0.00    +0.003 C 
ATOM     13  C   UNL     1     -19.151 -42.148  28.058  0.00  0.00    +0.000 C 
ATOM     14  C   UNL     1     -18.233 -42.492  29.052  0.00  0.00    +0.003 C 
ATOM     15  O   UNL     1     -15.108 -42.281  27.306  0.00  0.00    -0.421 OA
ATOM     16  C   UNL     1     -14.212 -42.595  28.199  0.00  0.00    +0.346 C 
ATOM     17  O   UNL     1     -12.997 -42.612  27.887  0.00  0.00    -0.244 OA
ENDBRANCH   2   7
BRANCH   4  18
ATOM     18  C   UNL     1     -10.533 -45.488  30.185  0.00  0.00    +0.000 C 
ATOM     19  C   UNL     1      -9.542 -46.019  30.986  0.00  0.00    +0.000 C 
ATOM     20  C   UNL     1      -8.561 -46.836  30.451  0.00  0.00    +0.000 C 
ATOM     21  C   UNL     1      -8.520 -47.159  29.109  0.00  0.00    +0.000 C 
ATOM     22  C   UNL     1      -9.514 -46.625  28.317  0.00  0.00    +0.000 C 
ATOM     23  C   UNL     1     -10.489 -45.817  28.831  0.00  0.00    +0.000 C 
ENDBRANCH   4  18
BRANCH   1  24
ATOM     24  N   UNL     1     -14.525 -42.082  32.398  0.00  0.00    -0.307 N 
ATOM     25  C   UNL     1     -15.761 -42.362  33.052  0.00  0.00    +0.091 C 
ATOM     26  C   UNL     1     -15.627 -41.510  34.321  0.00  0.00    +0.023 C 
ATOM     27  C   UNL     1     -15.096 -40.219  33.746  0.00  0.00    +0.023 C 
ATOM     28  C   UNL     1     -14.337 -40.633  32.493  0.00  0.00    +0.091 C 
ENDBRANCH   1  24
TORSDOF 3
