MODEL 1
REMARK VINA RESULT:    -9.404      0.000      0.000
REMARK INTER + INTRA:         -17.510
REMARK INTER:                 -16.275
REMARK INTRA:                  -1.234
REMARK UNBOUND:                -1.234
REMARK  Name = =
REMARK  14 active torsions:
REMARK  status: ('A' for Active; 'I' for Inactive)
REMARK    1  A    between atoms: S_1  and  S_2
REMARK    2  A    between atoms: S_1  and  S_11
REMARK    3  A    between atoms: S_1  and  S_16
REMARK    4  A    between atoms: S_2  and  C_6
REMARK    5  A    between atoms: S_11  and  S_12
REMARK    6  A    between atoms: S_12  and  C_13
REMARK    7  A    between atoms: C_13  and  O_15
REMARK    8  A    between atoms: S_16  and  C_17
REMARK    9  A    between atoms: C_17  and  O_19
REMARK   10  A    between atoms: O_19  and  O_20
REMARK   11  A    between atoms: O_20  and  C_21
REMARK   12  A    between atoms: C_23  and  O_30
REMARK   13  A    between atoms: C_25  and  O_29
REMARK   14  A    between atoms: C_26  and  C_27
REMARK                            x       y       z     vdW  Elec       q    Type
REMARK                         _______ _______ _______ _____ _____    ______ ____
ROOT
ATOM      1  S   UNL     1     -13.527 -42.961  27.745  0.00  0.00    -0.012 S 
ATOM      2  H   UNL     1     -14.186 -42.078  28.541  0.00  0.00    +0.127 HD
ENDROOT
BRANCH   1   3
ATOM      3  S   UNL     1     -14.426 -42.763  26.211  0.00  0.00    +0.047 S 
ATOM      4  O   UNL     1     -14.506 -43.998  25.385  0.00  0.00    -0.158 OA
ATOM      5  O   UNL     1     -13.913 -41.770  25.288  0.00  0.00    -0.158 OA
BRANCH   3   7
ATOM      6  C   UNL     1     -16.609 -42.117  27.679  0.00  0.00    +0.019 C 
ATOM      7  C   UNL     1     -16.035 -42.292  26.423  0.00  0.00    +0.116 C 
ATOM      8  C   UNL     1     -16.868 -42.084  25.343  0.00  0.00    +0.019 C 
ATOM      9  C   UNL     1     -18.192 -41.725  25.461  0.00  0.00    +0.001 C 
ATOM     10  C   UNL     1     -18.725 -41.561  26.715  0.00  0.00    +0.000 C 
ATOM     11  C   UNL     1     -17.927 -41.760  27.807  0.00  0.00    +0.001 C 
ENDBRANCH   3   7
ENDBRANCH   1   3
BRANCH   1  12
ATOM     12  S   UNL     1     -13.506 -44.286  28.355  0.00  0.00    -0.008 S 
BRANCH  12  13
ATOM     13  S   UNL     1     -12.755 -45.221  29.915  0.00  0.00    -0.000 S 
BRANCH  13  14
ATOM     14  C   UNL     1     -13.737 -45.126  31.412  0.00  0.00    +0.209 C 
ATOM     15  S   UNL     1     -14.023 -43.679  32.087  0.00  0.00    -0.003 S 
BRANCH  14  16
ATOM     16  O   UNL     1     -14.259 -46.258  32.008  0.00  0.00    -0.495 OA
ATOM     17  H   UNL     1     -13.698 -46.980  32.214  0.00  0.00    +0.293 HD
ENDBRANCH  14  16
ENDBRANCH  13  14
ENDBRANCH  12  13
ENDBRANCH   1  12
BRANCH   1  18
ATOM     18  S   UNL     1     -11.990 -42.739  27.506  0.00  0.00    +0.001 S 
BRANCH  18  19
ATOM     19  C   UNL     1     -10.807 -42.186  28.557  0.00  0.00    +0.268 C 
ATOM     20  S   UNL     1      -9.331 -41.705  28.042  0.00  0.00    +0.002 S 
BRANCH  19  21
ATOM     21  O   UNL     1     -11.014 -42.104  29.949  0.00  0.00    -0.272 OA
BRANCH  21  22
ATOM     22  O   UNL     1     -10.507 -43.086  30.724  0.00  0.00    -0.285 OA
BRANCH  22  23
ATOM     23  C   UNL     1      -9.912 -42.721  31.932  0.00  0.00    +0.205 C 
ATOM     24  C   UNL     1     -10.651 -42.209  32.972  0.00  0.00    +0.079 C 
ATOM     25  C   UNL     1     -10.071 -41.846  34.165  0.00  0.00    +0.140 C 
ATOM     26  C   UNL     1      -8.723 -41.991  34.343  0.00  0.00    +0.073 C 
ATOM     27  C   UNL     1      -7.939 -42.512  33.298  0.00  0.00    +0.143 C 
ATOM     28  C   UNL     1      -8.534 -42.869  32.111  0.00  0.00    +0.115 C 
BRANCH  28  29
ATOM     29  C   UNL     1      -7.770 -43.408  31.011  0.00  0.00    +0.240 C 
ATOM     30  O   UNL     1      -6.623 -43.898  31.083  0.00  0.00    -0.283 OA
ENDBRANCH  28  29
BRANCH  27  31
ATOM     31  O   UNL     1      -6.598 -42.617  33.577  0.00  0.00    -0.505 OA
ATOM     32  H   UNL     1      -5.982 -42.072  33.127  0.00  0.00    +0.292 HD
ENDBRANCH  27  31
BRANCH  25  33
ATOM     33  O   UNL     1     -10.906 -41.338  35.153  0.00  0.00    -0.505 OA
ATOM     34  H   UNL     1     -11.549 -41.890  35.552  0.00  0.00    +0.292 HD
ENDBRANCH  25  33
ENDBRANCH  22  23
ENDBRANCH  21  22
ENDBRANCH  19  21
ENDBRANCH  18  19
ENDBRANCH   1  18
TORSDOF 14
ENDMDL
