REMARK  Name = =
REMARK  14 active torsions:
REMARK  status: ('A' for Active; 'I' for Inactive)
REMARK    1  A    between atoms: S_1  and  S_2
REMARK    2  A    between atoms: S_1  and  S_11
REMARK    3  A    between atoms: S_1  and  S_16
REMARK    4  A    between atoms: S_2  and  C_6
REMARK    5  A    between atoms: S_11  and  S_12
REMARK    6  A    between atoms: S_12  and  C_13
REMARK    7  A    between atoms: C_13  and  O_15
REMARK    8  A    between atoms: S_16  and  C_17
REMARK    9  A    between atoms: C_17  and  O_19
REMARK   10  A    between atoms: O_19  and  O_20
REMARK   11  A    between atoms: O_20  and  C_21
REMARK   12  A    between atoms: C_23  and  O_30
REMARK   13  A    between atoms: C_25  and  O_29
REMARK   14  A    between atoms: C_26  and  C_27
REMARK                            x       y       z     vdW  Elec       q    Type
REMARK                         _______ _______ _______ _____ _____    ______ ____
ROOT
ATOM      1  S   UNL     1     -11.117 -43.326  31.497  0.00  0.00    -0.012 S 
ATOM      2  H   UNL     1     -10.911 -44.655  31.697  0.00  0.00    +0.127 HD
ENDROOT
BRANCH   1   3
ATOM      3  S   UNL     1      -9.499 -42.820  30.925  0.00  0.00    +0.047 S 
ATOM      4  O   UNL     1      -9.029 -41.525  31.487  0.00  0.00    -0.158 OA
ATOM      5  O   UNL     1      -9.349 -42.644  29.494  0.00  0.00    -0.158 OA
BRANCH   3   7
ATOM      6  C   UNL     1      -8.361 -45.277  31.024  0.00  0.00    +0.019 C 
ATOM      7  C   UNL     1      -8.271 -43.917  31.306  0.00  0.00    +0.116 C 
ATOM      8  C   UNL     1      -7.120 -43.507  31.947  0.00  0.00    +0.019 C 
ATOM      9  C   UNL     1      -6.101 -44.363  32.303  0.00  0.00    +0.001 C 
ATOM     10  C   UNL     1      -6.224 -45.698  32.009  0.00  0.00    +0.000 C 
ATOM     11  C   UNL     1      -7.352 -46.137  31.375  0.00  0.00    +0.001 C 
ENDBRANCH   3   7
ENDBRANCH   1   3
BRANCH   1  12
ATOM     12  S   UNL     1     -11.637 -42.699  32.707  0.00  0.00    -0.008 S 
BRANCH  12  13
ATOM     13  S   UNL     1     -11.076 -41.459  34.128  0.00  0.00    -0.000 S 
BRANCH  13  14
ATOM     14  C   UNL     1      -9.448 -41.765  34.815  0.00  0.00    +0.209 C 
ATOM     15  S   UNL     1      -8.947 -40.900  36.092  0.00  0.00    -0.003 S 
BRANCH  14  16
ATOM     16  O   UNL     1      -8.606 -42.722  34.282  0.00  0.00    -0.495 OA
ATOM     17  H   UNL     1      -8.881 -43.230  33.544  0.00  0.00    +0.293 HD
ENDBRANCH  14  16
ENDBRANCH  13  14
ENDBRANCH  12  13
ENDBRANCH   1  12
BRANCH   1  18
ATOM     18  S   UNL     1     -12.218 -42.895  30.463  0.00  0.00    +0.001 S 
BRANCH  18  19
ATOM     19  C   UNL     1     -12.664 -43.601  29.009  0.00  0.00    +0.268 C 
ATOM     20  S   UNL     1     -12.341 -45.165  28.658  0.00  0.00    +0.002 S 
BRANCH  19  21
ATOM     21  O   UNL     1     -13.344 -42.887  28.002  0.00  0.00    -0.272 OA
BRANCH  21  22
ATOM     22  O   UNL     1     -14.686 -42.777  28.100  0.00  0.00    -0.285 OA
BRANCH  22  23
ATOM     23  C   UNL     1     -15.391 -42.381  26.963  0.00  0.00    +0.205 C 
ATOM     24  C   UNL     1     -14.763 -42.203  25.753  0.00  0.00    +0.079 C 
ATOM     25  C   UNL     1     -15.451 -41.813  24.628  0.00  0.00    +0.140 C 
ATOM     26  C   UNL     1     -16.799 -41.591  24.693  0.00  0.00    +0.073 C 
ATOM     27  C   UNL     1     -17.471 -41.765  25.916  0.00  0.00    +0.143 C 
ATOM     28  C   UNL     1     -16.768 -42.155  27.031  0.00  0.00    +0.115 C 
BRANCH  28  29
ATOM     29  C   UNL     1     -17.415 -42.346  28.308  0.00  0.00    +0.240 C 
ATOM     30  O   UNL     1     -18.630 -42.181  28.548  0.00  0.00    -0.283 OA
ENDBRANCH  28  29
BRANCH  27  31
ATOM     31  O   UNL     1     -18.821 -41.517  25.875  0.00  0.00    -0.505 OA
ATOM     32  H   UNL     1     -19.225 -41.254  25.071  0.00  0.00    +0.292 HD
ENDBRANCH  27  31
BRANCH  25  33
ATOM     33  O   UNL     1     -14.723 -41.660  23.454  0.00  0.00    -0.505 OA
ATOM     34  H   UNL     1     -15.155 -41.396  22.666  0.00  0.00    +0.292 HD
ENDBRANCH  25  33
ENDBRANCH  22  23
ENDBRANCH  21  22
ENDBRANCH  19  21
ENDBRANCH  18  19
ENDBRANCH   1  18
TORSDOF 14
