REMARK  Name = =
REMARK  0 active torsions:
REMARK  status: ('A' for Active; 'I' for Inactive)
REMARK                            x       y       z     vdW  Elec       q    Type
REMARK                         _______ _______ _______ _____ _____    ______ ____
ROOT
ATOM      1  C   UNL     1     -12.734 -43.915  26.914  0.00  0.00    +0.026 C 
ATOM      2  C   UNL     1     -12.125 -43.358  28.181  0.00  0.00    +0.005 C 
ATOM      3  C   UNL     1     -12.910 -43.848  29.349  0.00  0.00    +0.005 C 
ATOM      4  C   UNL     1     -14.373 -43.587  29.284  0.00  0.00    +0.026 C 
ATOM      5  C   UNL     1     -14.843 -43.180  27.925  0.00  0.00    -0.026 C 
ATOM      6  C   UNL     1     -14.092 -43.323  26.791  0.00  0.00    -0.026 C 
ATOM      7  C   UNL     1     -14.535 -42.945  25.543  0.00  0.00    -0.001 C 
ATOM      8  C   UNL     1     -15.805 -42.388  25.397  0.00  0.00    +0.042 C 
ATOM      9  C   UNL     1     -16.570 -42.240  26.533  0.00  0.00    +0.042 C 
ATOM     10  C   UNL     1     -16.100 -42.630  27.789  0.00  0.00    -0.001 C 
ATOM     11  C   UNL     1     -17.899 -41.657  26.391  0.00  0.00    +0.196 C 
ATOM     12  O   UNL     1     -18.654 -41.494  27.403  0.00  0.00    -0.287 OA
ATOM     13  C   UNL     1     -18.452 -41.228  25.111  0.00  0.00    +0.042 C 
ATOM     14  C   UNL     1     -17.652 -41.395  24.000  0.00  0.00    +0.042 C 
ATOM     15  C   UNL     1     -18.168 -40.991  22.779  0.00  0.00    +0.003 C 
ATOM     16  C   UNL     1     -19.431 -40.446  22.699  0.00  0.00    +0.000 C 
ATOM     17  C   UNL     1     -20.232 -40.278  23.807  0.00  0.00    +0.000 C 
ATOM     18  C   UNL     1     -19.726 -40.678  25.024  0.00  0.00    +0.003 C 
ATOM     19  C   UNL     1     -16.309 -41.975  24.091  0.00  0.00    +0.196 C 
ATOM     20  O   UNL     1     -15.588 -42.123  23.075  0.00  0.00    -0.287 OA
ENDROOT
TORSDOF 0
