MODEL 1
REMARK VINA RESULT:   -10.104      0.000      0.000
REMARK INTER + INTRA:         -15.870
REMARK INTER:                 -15.421
REMARK INTRA:                  -0.449
REMARK UNBOUND:                -0.449
REMARK  Name = =
REMARK  9 active torsions:
REMARK  status: ('A' for Active; 'I' for Inactive)
REMARK    1  A    between atoms: C_1  and  C_26
REMARK    2  A    between atoms: C_3  and  C_6
REMARK    3  A    between atoms: C_5  and  C_13
REMARK    4  A    between atoms: C_18  and  N_19
REMARK    5  A    between atoms: C_26  and  N_27
REMARK    6  A    between atoms: N_27  and  N_31
REMARK    7  A    between atoms: C_32  and  C_34
REMARK    8  A    between atoms: C_34  and  O_36
REMARK    9  A    between atoms: O_36  and  C_37
REMARK                            x       y       z     vdW  Elec       q    Type
REMARK                         _______ _______ _______ _____ _____    ______ ____
ROOT
ATOM      1  C   UNL     1      -0.193  -5.780  29.309  0.00  0.00    +0.095 C 
ATOM      2  N   UNL     1      -0.346  -6.703  30.218  0.00  0.00    -0.249 NA
ATOM      3  C   UNL     1      -1.396  -6.294  31.072  0.00  0.00    +0.208 C 
ATOM      4  N   UNL     1      -1.823  -5.040  30.561  0.00  0.00    -0.247 NA
ATOM      5  C   UNL     1      -1.135  -4.713  29.526  0.00  0.00    +0.090 C 
ENDROOT
BRANCH   3   6
ATOM      6  C   UNL     1      -2.616  -7.217  30.978  0.00  0.00    +0.068 C 
ATOM      7  C   UNL     1      -3.825  -6.317  31.173  0.00  0.00    +0.016 C 
ATOM      8  C   UNL     1      -3.850  -5.695  32.521  0.00  0.00    +0.070 C 
ATOM      9  C   UNL     1      -3.340  -6.608  33.553  0.00  0.00    +0.173 C 
ATOM     10  O   UNL     1      -3.262  -6.218  34.763  0.00  0.00    -0.291 OA
ATOM     11  C   UNL     1      -2.917  -7.954  33.228  0.00  0.00    +0.033 C 
ATOM     12  C   UNL     1      -2.567  -8.259  32.005  0.00  0.00    -0.020 C 
ENDBRANCH   3   6
BRANCH   5  13
ATOM     13  C   UNL     1      -1.341  -3.444  28.758  0.00  0.00    +0.010 C 
ATOM     14  C   UNL     1      -2.068  -2.489  29.340  0.00  0.00    -0.027 C 
ATOM     15  C   UNL     1      -2.405  -1.174  28.788  0.00  0.00    +0.026 C 
ATOM     16  C   UNL     1      -2.011  -1.029  27.343  0.00  0.00    +0.007 C 
ATOM     17  C   UNL     1      -1.831  -2.326  26.664  0.00  0.00    +0.025 C 
ATOM     18  C   UNL     1      -0.794  -3.199  27.426  0.00  0.00    +0.101 C 
BRANCH  18  19
ATOM     19  N   UNL     1       0.463  -2.509  27.359  0.00  0.00    -0.253 N 
ATOM     20  C   UNL     1       1.147  -2.212  26.081  0.00  0.00    +0.181 C 
ATOM     21  C   UNL     1       1.588  -0.797  26.371  0.00  0.00    +0.250 C 
ATOM     22  O   UNL     1       1.562   0.147  25.550  0.00  0.00    -0.273 OA
ATOM     23  N   UNL     1       2.011  -0.832  27.726  0.00  0.00    -0.238 N 
ATOM     24  C   UNL     1       1.297  -1.917  28.350  0.00  0.00    +0.310 C 
ATOM     25  O   UNL     1       1.408  -2.264  29.540  0.00  0.00    -0.252 OA
ATOM     26  H   UNL     1       2.663  -0.232  28.154  0.00  0.00    +0.159 HD
ENDBRANCH  18  19
ENDBRANCH   5  13
BRANCH   1  27
ATOM     27  C   UNL     1       0.835  -5.871  28.226  0.00  0.00    +0.161 C 
BRANCH  27  28
ATOM     28  N   UNL     1       2.162  -5.717  28.815  0.00  0.00    -0.202 N 
ATOM     29  C   UNL     1       3.206  -5.063  28.124  0.00  0.00    +0.242 C 
ATOM     30  O   UNL     1       2.960  -4.603  26.981  0.00  0.00    -0.273 OA
ATOM     31  C   UNL     1       4.580  -4.875  28.643  0.00  0.00    +0.096 C 
BRANCH  28  32
ATOM     32  N   UNL     1       2.441  -6.237  30.099  0.00  0.00    -0.221 N 
ATOM     33  C   UNL     1       2.423  -5.347  31.217  0.00  0.00    +0.339 C 
ATOM     34  O   UNL     1       2.153  -4.122  30.997  0.00  0.00    -0.261 OA
ATOM     35  H   UNL     1       2.644  -7.192  30.220  0.00  0.00    +0.174 HD
BRANCH  33  36
ATOM     36  C   UNL     1       2.700  -5.768  32.582  0.00  0.00    +0.411 C 
ATOM     37  O   UNL     1       1.899  -6.541  33.160  0.00  0.00    -0.238 OA
BRANCH  36  38
ATOM     38  O   UNL     1       3.812  -5.354  33.278  0.00  0.00    -0.344 OA
BRANCH  38  39
ATOM     39  C   UNL     1       3.818  -4.463  34.276  0.00  0.00    +0.295 C 
ATOM     40  N   UNL     1       3.820  -3.652  35.151  0.00  0.00    -0.149 NA
ENDBRANCH  38  39
ENDBRANCH  36  38
ENDBRANCH  33  36
ENDBRANCH  28  32
ENDBRANCH  27  28
ENDBRANCH   1  27
TORSDOF 9
ENDMDL
