REMARK  Name = =
REMARK  1 active torsions:
REMARK  status: ('A' for Active; 'I' for Inactive)
REMARK    1  A    between atoms: C_1  and  C_3
REMARK                            x       y       z     vdW  Elec       q    Type
REMARK                         _______ _______ _______ _____ _____    ______ ____
ROOT
ATOM      1  C   UNL     1      52.383 155.056  28.297  0.00  0.00    +0.234 C 
ATOM      2  O   UNL     1      52.831 153.893  28.402  0.00  0.00    -0.283 OA
ENDROOT
BRANCH   1   3
ATOM      3  C   UNL     1      52.842 155.844  27.165  0.00  0.00    +0.045 C 
ATOM      4  C   UNL     1      53.167 155.299  26.004  0.00  0.00    +0.003 C 
ENDBRANCH   1   3
TORSDOF 1
