REMARK  Name = =
REMARK  9 active torsions:
REMARK  status: ('A' for Active; 'I' for Inactive)
REMARK    1  A    between atoms: C_1  and  C_11
REMARK    2  A    between atoms: N_3  and  C_4
REMARK    3  A    between atoms: N_3  and  O_19
REMARK    4  A    between atoms: C_4  and  C_7
REMARK    5  A    between atoms: N_9  and  O_10
REMARK    6  A    between atoms: C_12  and  C_13
REMARK    7  A    between atoms: C_13  and  P_15
REMARK    8  A    between atoms: P_15  and  O_17
REMARK    9  A    between atoms: P_15  and  O_18
REMARK                            x       y       z     vdW  Elec       q    Type
REMARK                         _______ _______ _______ _____ _____    ______ ____
ROOT
ATOM      1  C   UNL     1      52.973 154.498  25.726  0.00  0.00    +0.275 C 
ATOM      2  O   UNL     1      52.393 154.879  24.658  0.00  0.00    -0.267 OA
ATOM      3  N   UNL     1      54.061 153.601  25.733  0.00  0.00    -0.141 N 
ENDROOT
BRANCH   3   4
ATOM      4  C   UNL     1      54.540 153.049  24.489  0.00  0.00    +0.142 C 
ATOM      5  C   UNL     1      55.141 153.854  23.668  0.00  0.00    +0.057 C 
ATOM      6  I   UNL     1      55.426 155.891  24.091  0.00  0.00    -0.041 I 
BRANCH   4   7
ATOM      7  C   UNL     1      54.305 151.640  24.268  0.00  0.00    +0.284 C 
ATOM      8  O   UNL     1      53.991 151.251  23.114  0.00  0.00    -0.267 OA
ATOM      9  N   UNL     1      54.417 150.680  25.311  0.00  0.00    -0.192 N 
ATOM     10  H   UNL     1      54.663 150.978  26.216  0.00  0.00    +0.183 HD
BRANCH   9  11
ATOM     11  O   UNL     1      54.190 149.350  25.082  0.00  0.00    -0.295 OA
ATOM     12  H   UNL     1      53.960 149.217  24.149  0.00  0.00    +0.241 HD
ENDBRANCH   9  11
ENDBRANCH   4   7
ENDBRANCH   3   4
BRANCH   1  13
ATOM     13  C   UNL     1      52.477 155.025  26.988  0.00  0.00    +0.061 C 
ATOM     14  C   UNL     1      52.672 156.288  27.324  0.00  0.00    +0.012 C 
BRANCH  14  15
ATOM     15  C   UNL     1      52.159 156.760  28.587  0.00  0.00    +0.080 C 
ATOM     16  C   UNL     1      52.662 157.853  29.114  0.00  0.00    +0.008 C 
BRANCH  15  17
ATOM     17  P   UNL     1      50.867 155.870  29.410  0.00  0.00    +0.359 P 
ATOM     18  O   UNL     1      49.994 155.113  28.424  0.00  0.00    -0.253 OA
BRANCH  17  19
ATOM     19  O   UNL     1      51.467 154.734  30.503  0.00  0.00    -0.321 OA
ATOM     20  H   UNL     1      52.033 155.179  31.154  0.00  0.00    +0.220 HD
ENDBRANCH  17  19
BRANCH  17  21
ATOM     21  O   UNL     1      49.876 156.966  30.210  0.00  0.00    -0.321 OA
ATOM     22  H   UNL     1      50.402 157.470  30.851  0.00  0.00    +0.220 HD
ENDBRANCH  17  21
ENDBRANCH  15  17
ENDBRANCH  14  15
ENDBRANCH   1  13
BRANCH   3  23
ATOM     23  O   UNL     1      54.631 153.261  26.905  0.00  0.00    -0.287 OA
ATOM     24  H   UNL     1      54.183 153.725  27.629  0.00  0.00    +0.242 HD
ENDBRANCH   3  23
TORSDOF 9
