MODEL 1
REMARK VINA RESULT:    -7.703      0.000      0.000
REMARK INTER + INTRA:         -11.068
REMARK INTER:                  -9.729
REMARK INTRA:                  -1.339
REMARK UNBOUND:                -1.339
REMARK  Name = =
REMARK  5 active torsions:
REMARK  status: ('A' for Active; 'I' for Inactive)
REMARK    1  A    between atoms: C_1  and  C_17
REMARK    2  A    between atoms: C_1  and  O_39
REMARK    3  A    between atoms: O_39  and  C_40
REMARK    4  A    between atoms: C_40  and  C_42
REMARK    5  A    between atoms: C_45  and  O_48
REMARK                            x       y       z     vdW  Elec       q    Type
REMARK                         _______ _______ _______ _____ _____    ______ ____
ROOT
ATOM      1  C   UNL     1      58.639 162.227  41.725  0.00  0.00    +0.174 C 
ATOM      2  C   UNL     1      57.285 162.443  41.171  0.00  0.00    +0.069 C 
ATOM      3  C   UNL     1      56.193 161.607  41.686  0.00  0.00    -0.016 C 
ATOM      4  C   UNL     1      56.376 160.447  42.380  0.00  0.00    +0.031 C 
ATOM      5  C   UNL     1      55.310 159.670  42.833  0.00  0.00    +0.003 C 
ATOM      6  C   UNL     1      54.030 160.066  42.584  0.00  0.00    +0.000 C 
ATOM      7  C   UNL     1      53.811 161.239  41.882  0.00  0.00    -0.000 C 
ATOM      8  C   UNL     1      54.891 161.995  41.440  0.00  0.00    -0.004 C 
ATOM      9  C   UNL     1      52.504 161.600  41.652  0.00  0.00    -0.000 C 
ATOM     10  C   UNL     1      51.435 160.849  42.089  0.00  0.00    -0.000 C 
ATOM     11  C   UNL     1      51.669 159.691  42.784  0.00  0.00    +0.000 C 
ATOM     12  C   UNL     1      52.966 159.293  43.034  0.00  0.00    +0.000 C 
ATOM     13  C   UNL     1      57.755 160.060  42.641  0.00  0.00    +0.176 C 
ATOM     14  O   UNL     1      58.045 158.849  42.754  0.00  0.00    -0.291 OA
ATOM     15  C   UNL     1      58.737 161.161  42.756  0.00  0.00    +0.112 C 
ENDROOT
BRANCH   1  17
ATOM     16  O   UNL     1      58.755 161.874  39.459  0.00  0.00    -0.350 OA
ATOM     17  C   UNL     1      59.579 161.987  40.530  0.00  0.00    +0.178 C 
ATOM     18  C   UNL     1      60.588 160.927  40.705  0.00  0.00    +0.146 C 
ATOM     19  O   UNL     1      61.870 161.214  40.250  0.00  0.00    -0.349 OA
ATOM     20  C   UNL     1      62.031 161.279  38.919  0.00  0.00    +0.169 C 
ATOM     21  C   UNL     1      63.455 161.463  38.555  0.00  0.00    +0.007 C 
ATOM     22  C   UNL     1      64.031 162.659  38.183  0.00  0.00    -0.002 C 
ATOM     23  C   UNL     1      63.396 163.969  38.170  0.00  0.00    -0.002 C 
ATOM     24  C   UNL     1      62.705 164.559  39.207  0.00  0.00    +0.007 C 
ATOM     25  C   UNL     1      62.144 165.826  38.990  0.00  0.00    -0.002 C 
ATOM     26  C   UNL     1      62.250 166.504  37.814  0.00  0.00    -0.000 C 
ATOM     27  C   UNL     1      62.943 165.923  36.776  0.00  0.00    -0.000 C 
ATOM     28  C   UNL     1      63.505 164.679  36.952  0.00  0.00    -0.000 C 
ATOM     29  C   UNL     1      62.560 164.029  40.569  0.00  0.00    +0.169 C 
ATOM     30  O   UNL     1      61.601 163.148  40.844  0.00  0.00    -0.346 OA
ATOM     31  C   UNL     1      60.328 163.312  40.399  0.00  0.00    +0.175 C 
ATOM     32  C   UNL     1      65.383 162.620  37.780  0.00  0.00    -0.000 C 
ATOM     33  C   UNL     1      66.115 161.461  37.754  0.00  0.00    -0.000 C 
ATOM     34  C   UNL     1      65.544 160.277  38.127  0.00  0.00    -0.000 C 
ATOM     35  C   UNL     1      64.223 160.286  38.523  0.00  0.00    -0.002 C 
ATOM     36  C   UNL     1      60.268 159.541  40.265  0.00  0.00    +0.035 C 
ATOM     37  C   UNL     1      59.197 159.493  39.241  0.00  0.00    +0.035 C 
ATOM     38  C   UNL     1      58.819 160.806  38.642  0.00  0.00    +0.142 C 
ENDBRANCH   1  17
BRANCH   1  39
ATOM     39  O   UNL     1      59.121 163.423  42.307  0.00  0.00    -0.449 OA
BRANCH  39  40
ATOM     40  C   UNL     1      58.442 164.607  42.396  0.00  0.00    +0.341 C 
ATOM     41  O   UNL     1      57.351 164.665  43.033  0.00  0.00    -0.245 OA
BRANCH  40  42
ATOM     42  C   UNL     1      58.924 165.825  41.782  0.00  0.00    +0.076 C 
ATOM     43  C   UNL     1      59.993 166.498  42.313  0.00  0.00    +0.010 C 
ATOM     44  C   UNL     1      60.457 167.675  41.719  0.00  0.00    +0.037 C 
ATOM     45  C   UNL     1      59.829 168.153  40.595  0.00  0.00    +0.134 C 
ATOM     46  C   UNL     1      58.744 167.479  40.050  0.00  0.00    +0.037 C 
ATOM     47  C   UNL     1      58.302 166.309  40.660  0.00  0.00    +0.010 C 
BRANCH  45  48
ATOM     48  O   UNL     1      60.248 169.319  39.963  0.00  0.00    -0.506 OA
ATOM     49  H   UNL     1      59.627 169.989  39.758  0.00  0.00    +0.292 HD
ENDBRANCH  45  48
ENDBRANCH  40  42
ENDBRANCH  39  40
ENDBRANCH   1  39
TORSDOF 5
ENDMDL
