MODEL 1
REMARK VINA RESULT:    -8.116      0.000      0.000
REMARK INTER + INTRA:         -11.613
REMARK INTER:                 -10.489
REMARK INTRA:                  -1.124
REMARK UNBOUND:                -1.124
REMARK  Name = =
REMARK  5 active torsions:
REMARK  status: ('A' for Active; 'I' for Inactive)
REMARK    1  A    between atoms: C_1  and  C_13
REMARK    2  A    between atoms: C_2  and  O_19
REMARK    3  A    between atoms: O_19  and  C_20
REMARK    4  A    between atoms: C_20  and  C_26
REMARK    5  A    between atoms: C_26  and  O_28
REMARK                            x       y       z     vdW  Elec       q    Type
REMARK                         _______ _______ _______ _____ _____    ______ ____
ROOT
ATOM      1  C   UNL     1      52.214 163.941  41.713  0.00  0.00    +0.037 C 
ATOM      2  C   UNL     1      51.256 163.059  42.081  0.00  0.00    +0.142 C 
ATOM      3  C   UNL     1      51.600 161.712  42.262  0.00  0.00    +0.074 C 
ATOM      4  C   UNL     1      52.882 161.236  42.086  0.00  0.00    +0.152 C 
ATOM      5  C   UNL     1      53.834 162.142  41.718  0.00  0.00    +0.035 C 
ATOM      6  C   UNL     1      53.515 163.443  41.538  0.00  0.00    +0.006 C 
ATOM      7  C   UNL     1      55.150 161.702  41.528  0.00  0.00    +0.010 C 
ATOM      8  C   UNL     1      55.397 160.372  41.725  0.00  0.00    +0.082 C 
ATOM      9  C   UNL     1      54.380 159.528  42.095  0.00  0.00    +0.346 C 
ATOM     10  O   UNL     1      54.677 158.298  42.266  0.00  0.00    -0.244 OA
ATOM     11  O   UNL     1      53.157 159.951  42.270  0.00  0.00    -0.421 OA
ENDROOT
BRANCH   1  13
ATOM     12  C   UNL     1      51.348 166.157  42.150  0.00  0.00    -0.018 C 
ATOM     13  C   UNL     1      52.000 165.344  41.331  0.00  0.00    +0.038 C 
ATOM     14  C   UNL     1      52.538 165.952  40.140  0.00  0.00    +0.195 C 
ATOM     15  O   UNL     1      53.183 165.317  39.276  0.00  0.00    -0.287 OA
ATOM     16  C   UNL     1      52.365 167.399  39.855  0.00  0.00    +0.038 C 
ATOM     17  C   UNL     1      51.714 168.130  40.706  0.00  0.00    -0.018 C 
ATOM     18  C   UNL     1      51.141 167.600  41.938  0.00  0.00    +0.052 C 
ENDBRANCH   1  13
BRANCH   2  19
ATOM     19  O   UNL     1      49.970 163.382  42.306  0.00  0.00    -0.472 OA
BRANCH  19  20
ATOM     20  C   UNL     1      48.782 162.999  41.732  0.00  0.00    +0.221 C 
ATOM     21  C   UNL     1      47.671 163.449  42.689  0.00  0.00    +0.051 C 
ATOM     22  C   UNL     1      46.465 163.966  41.969  0.00  0.00    +0.004 C 
ATOM     23  C   UNL     1      46.792 165.224  41.193  0.00  0.00    +0.000 C 
ATOM     24  C   UNL     1      48.157 165.122  40.537  0.00  0.00    +0.004 C 
ATOM     25  C   UNL     1      48.596 163.700  40.388  0.00  0.00    +0.051 C 
BRANCH  20  26
ATOM     26  C   UNL     1      48.538 161.579  41.470  0.00  0.00    +0.354 C 
ATOM     27  O   UNL     1      48.682 160.929  40.438  0.00  0.00    -0.246 OA
BRANCH  26  28
ATOM     28  O   UNL     1      48.061 160.852  42.592  0.00  0.00    -0.442 OA
ATOM     29  C   UNL     1      48.520 159.576  42.903  0.00  0.00    +0.256 C 
ENDBRANCH  26  28
ENDBRANCH  20  26
ENDBRANCH  19  20
ENDBRANCH   2  19
TORSDOF 5
ENDMDL
