REMARK  Name = =
REMARK  2 active torsions:
REMARK  status: ('A' for Active; 'I' for Inactive)
REMARK    1  A    between atoms: C_9  and  C_10
REMARK    2  A    between atoms: C_10  and  O_12
REMARK                            x       y       z     vdW  Elec       q    Type
REMARK                         _______ _______ _______ _____ _____    ______ ____
ROOT
ATOM      1  N   UNL     1     -11.929 -43.584  28.366  0.00  0.00    -0.271 N 
ATOM      2  C   UNL     1     -11.169 -44.560  29.139  0.00  0.00    +0.146 C 
ATOM      3  C   UNL     1     -10.161 -43.480  29.308  0.00  0.00    +0.085 C 
ATOM      4  C   UNL     1     -11.397 -42.649  29.268  0.00  0.00    +0.213 C 
ATOM      5  O   UNL     1     -11.870 -41.593  29.759  0.00  0.00    -0.202 OA
ATOM      6  S   UNL     1     -10.790 -45.921  28.041  0.00  0.00    -0.115 S 
ATOM      7  C   UNL     1     -12.487 -46.310  27.446  0.00  0.00    +0.087 C 
ATOM      8  C   UNL     1     -12.995 -45.075  26.822  0.00  0.00    +0.007 C 
ATOM      9  C   UNL     1     -12.723 -43.866  27.263  0.00  0.00    +0.123 C 
ENDROOT
BRANCH   9  10
ATOM     10  C   UNL     1     -13.315 -42.757  26.518  0.00  0.00    +0.351 C 
ATOM     11  O   UNL     1     -13.308 -42.681  25.260  0.00  0.00    -0.244 OA
BRANCH  10  12
ATOM     12  O   UNL     1     -13.941 -41.686  27.176  0.00  0.00    -0.476 OA
ATOM     13  H   UNL     1     -13.985 -41.673  28.112  0.00  0.00    +0.295 HD
ENDBRANCH  10  12
ENDBRANCH   9  10
TORSDOF 2
