REMARK  Name = =
REMARK  10 active torsions:
REMARK  status: ('A' for Active; 'I' for Inactive)
REMARK    1  A    between atoms: N_1  and  N_15
REMARK    2  A    between atoms: N_1  and  O_33
REMARK    3  A    between atoms: C_2  and  C_8
REMARK    4  A    between atoms: N_3  and  N_4
REMARK    5  A    between atoms: N_10  and  S_11
REMARK    6  A    between atoms: S_11  and  N_14
REMARK    7  A    between atoms: N_15  and  C_19
REMARK    8  A    between atoms: C_16  and  C_30
REMARK    9  A    between atoms: C_26  and  C_27
REMARK   10  A    between atoms: C_27  and  O_29
REMARK                            x       y       z     vdW  Elec       q    Type
REMARK                         _______ _______ _______ _____ _____    ______ ____
ROOT
ATOM      1  N   UNL     1     -10.799 -42.434  31.356  0.00  0.00    -0.136 N 
ATOM      2  C   UNL     1     -11.892 -43.256  31.424  0.00  0.00    +0.255 C 
ATOM      3  N   UNL     1     -12.327 -43.710  32.542  0.00  0.00    -0.152 NA
ENDROOT
BRANCH   3   4
ATOM      4  N   UNL     1     -13.398 -44.534  32.771  0.00  0.00    -0.189 N 
ATOM      5  C   UNL     1     -14.407 -44.072  33.660  0.00  0.00    +0.317 C 
ATOM      6  O   UNL     1     -14.282 -42.923  34.207  0.00  0.00    -0.251 OA
ATOM      7  N   UNL     1     -15.563 -44.798  34.000  0.00  0.00    -0.312 N 
ATOM      8  H   UNL     1     -13.466 -45.414  32.336  0.00  0.00    +0.179 HD
ATOM      9  H   UNL     1     -15.716 -45.690  33.612  0.00  0.00    +0.147 HD
ATOM     10  H   UNL     1     -16.219 -44.415  34.626  0.00  0.00    +0.147 HD
ENDBRANCH   3   4
BRANCH   2  11
ATOM     11  C   UNL     1     -12.628 -43.682  30.242  0.00  0.00    +0.304 C 
ATOM     12  O   UNL     1     -12.967 -44.912  30.124  0.00  0.00    -0.265 OA
ATOM     13  N   UNL     1     -13.018 -42.859  29.175  0.00  0.00    -0.169 N 
ATOM     14  H   UNL     1     -12.797 -41.900  29.204  0.00  0.00    +0.178 HD
BRANCH  13  15
ATOM     15  S   UNL     1     -13.882 -43.489  27.802  0.00  0.00    +0.109 S 
ATOM     16  O   UNL     1     -13.963 -44.988  27.878  0.00  0.00    -0.138 OA
ATOM     17  O   UNL     1     -15.287 -42.963  27.808  0.00  0.00    -0.138 OA
BRANCH  15  18
ATOM     18  N   UNL     1     -13.168 -43.027  26.309  0.00  0.00    -0.191 NA
ATOM     19  H   UNL     1     -13.708 -43.419  25.538  0.00  0.00    +0.146 HD
ATOM     20  H   UNL     1     -12.211 -43.378  26.267  0.00  0.00    +0.146 HD
ENDBRANCH  15  18
ENDBRANCH  13  15
ENDBRANCH   2  11
BRANCH   1  21
ATOM     21  N   UNL     1      -9.623 -42.839  32.022  0.00  0.00    -0.144 N 
ATOM     22  C   UNL     1      -9.359 -42.443  33.344  0.00  0.00    +0.323 C 
ATOM     23  O   UNL     1      -8.267 -42.841  33.882  0.00  0.00    -0.263 OA
BRANCH  21  25
ATOM     24  N   UNL     1      -9.317 -44.624  30.330  0.00  0.00    -0.230 N 
ATOM     25  C   UNL     1      -8.732 -43.637  31.207  0.00  0.00    +0.197 C 
ATOM     26  C   UNL     1      -8.034 -44.752  31.865  0.00  0.00    +0.136 C 
ATOM     27  C   UNL     1      -9.131 -45.561  31.343  0.00  0.00    +0.236 C 
ATOM     28  O   UNL     1      -9.615 -46.676  31.756  0.00  0.00    -0.274 OA
ATOM     29  S   UNL     1      -7.814 -42.539  30.087  0.00  0.00    -0.097 S 
ATOM     30  C   UNL     1      -9.192 -42.037  28.985  0.00  0.00    +0.088 C 
ATOM     31  C   UNL     1      -9.721 -43.267  28.371  0.00  0.00    +0.007 C 
ATOM     32  C   UNL     1      -9.769 -44.421  28.993  0.00  0.00    +0.128 C 
BRANCH  32  33
ATOM     33  C   UNL     1     -10.300 -45.580  28.231  0.00  0.00    +0.352 C 
ATOM     34  O   UNL     1      -9.673 -46.654  28.147  0.00  0.00    -0.244 OA
BRANCH  33  35
ATOM     35  O   UNL     1     -11.518 -45.451  27.603  0.00  0.00    -0.476 OA
ATOM     36  H   UNL     1     -11.993 -44.646  27.663  0.00  0.00    +0.295 HD
ENDBRANCH  33  35
ENDBRANCH  32  33
ENDBRANCH  21  25
BRANCH  22  37
ATOM     37  C   UNL     1     -10.187 -41.628  34.199  0.00  0.00    +0.298 C 
ATOM     38  O   UNL     1     -11.199 -41.032  33.758  0.00  0.00    -0.265 OA
ATOM     39  N   UNL     1      -9.910 -41.447  35.578  0.00  0.00    -0.322 N 
ATOM     40  H   UNL     1      -9.130 -41.888  35.985  0.00  0.00    +0.145 HD
ATOM     41  H   UNL     1     -10.498 -40.880  36.128  0.00  0.00    +0.145 HD
ENDBRANCH  22  37
ENDBRANCH   1  21
BRANCH   1  42
ATOM     42  O   UNL     1     -10.899 -41.197  30.988  0.00  0.00    -0.267 OA
ATOM     43  H   UNL     1     -11.751 -41.059  30.546  0.00  0.00    +0.246 HD
ENDBRANCH   1  42
TORSDOF 10
