REMARK  Name = =
REMARK  2 active torsions:
REMARK  status: ('A' for Active; 'I' for Inactive)
REMARK    1  A    between atoms: C_1  and  N_3
REMARK    2  A    between atoms: C_1  and  S_4
REMARK                            x       y       z     vdW  Elec       q    Type
REMARK                         _______ _______ _______ _____ _____    ______ ____
ROOT
ATOM      1  C   UNL     1      -4.234  -3.873  32.932  0.00  0.00    +0.101 C 
ATOM      2  S   UNL     1      -3.999  -5.421  33.344  0.00  0.00    -0.029 S 
ENDROOT
BRANCH   1   3
ATOM      3  N   UNL     1      -5.019  -3.027  33.742  0.00  0.00    -0.347 N 
ATOM      4  H   UNL     1      -5.430  -3.376  34.566  0.00  0.00    +0.143 HD
ATOM      5  H   UNL     1      -5.156  -2.087  33.484  0.00  0.00    +0.143 HD
ENDBRANCH   1   3
BRANCH   1   6
ATOM      6  S   UNL     1      -3.485  -3.265  31.445  0.00  0.00    -0.121 S 
ATOM      7  H   UNL     1      -2.785  -4.266  30.848  0.00  0.00    +0.109 HD
ENDBRANCH   1   6
TORSDOF 2
