REMARK  Name = =
REMARK  5 active torsions:
REMARK  status: ('A' for Active; 'I' for Inactive)
REMARK    1  A    between atoms: C_1  and  S_14
REMARK    2  A    between atoms: C_4  and  N_7
REMARK    3  A    between atoms: C_13  and  S_14
REMARK    4  A    between atoms: C_13  and  N_15
REMARK    5  A    between atoms: C_13  and  S_16
REMARK                            x       y       z     vdW  Elec       q    Type
REMARK                         _______ _______ _______ _____ _____    ______ ____
ROOT
ATOM      1  C   UNL     1       0.849  -7.337  28.919  0.00  0.00    +0.015 C 
ATOM      2  C   UNL     1       0.863  -6.272  29.795  0.00  0.00    +0.006 C 
ATOM      3  C   UNL     1      -0.181  -6.084  30.677  0.00  0.00    +0.015 C 
ATOM      4  C   UNL     1      -1.283  -6.937  30.734  0.00  0.00    +0.048 C 
ATOM      5  C   UNL     1      -1.270  -7.990  29.849  0.00  0.00    +0.015 C 
ATOM      6  C   UNL     1      -0.224  -8.193  28.953  0.00  0.00    +0.006 C 
ENDROOT
BRANCH   4   7
ATOM      7  N   UNL     1      -2.345  -6.733  31.645  0.00  0.00    -0.300 N 
ATOM      8  C   UNL     1      -3.412  -5.794  31.402  0.00  0.00    +0.117 C 
ATOM      9  C   UNL     1      -3.877  -5.173  32.729  0.00  0.00    +0.147 C 
ATOM     10  N   UNL     1      -4.432  -6.234  33.498  0.00  0.00    -0.270 NA
ATOM     11  C   UNL     1      -3.635  -7.398  33.647  0.00  0.00    +0.088 C 
ATOM     12  C   UNL     1      -2.381  -7.488  32.874  0.00  0.00    +0.138 C 
ENDBRANCH   4   7
BRANCH   1  13
ATOM     13  S   UNL     1       2.213  -7.576  27.773  0.00  0.00    -0.158 S 
ATOM     14  H   UNL     1       2.869  -8.704  28.155  0.00  0.00    +0.099 HD
BRANCH  13  15
ATOM     15  C   UNL     1       3.329  -6.382  27.646  0.00  0.00    +0.137 C 
BRANCH  15  16
ATOM     16  N   UNL     1       4.430  -6.507  26.762  0.00  0.00    -0.306 NA
ATOM     17  H   UNL     1       4.377  -7.403  26.277  0.00  0.00    +0.120 HD
ATOM     18  H   UNL     1       5.300  -6.459  27.293  0.00  0.00    +0.120 HD
ENDBRANCH  15  16
BRANCH  15  19
ATOM     19  S   UNL     1       3.215  -4.880  28.608  0.00  0.00    -0.143 S 
ATOM     20  H   UNL     1       2.107  -4.929  29.395  0.00  0.00    +0.104 HD
ENDBRANCH  15  19
ENDBRANCH  13  15
ENDBRANCH   1  13
TORSDOF 5
