REMARK  Name = =
REMARK  6 active torsions:
REMARK  status: ('A' for Active; 'I' for Inactive)
REMARK    1  A    between atoms: N_1  and  C_21
REMARK    2  A    between atoms: C_5  and  C_7
REMARK    3  A    between atoms: C_18  and  S_25
REMARK    4  A    between atoms: C_24  and  S_25
REMARK    5  A    between atoms: C_24  and  N_26
REMARK    6  A    between atoms: C_24  and  S_27
REMARK                            x       y       z     vdW  Elec       q    Type
REMARK                         _______ _______ _______ _____ _____    ______ ____
ROOT
ATOM      1  N   UNL     1       3.053  -7.344  26.010  0.00  0.00    -0.305 N 
ATOM      2  C   UNL     1       1.761  -7.975  26.066  0.00  0.00    +0.110 C 
ATOM      3  C   UNL     1       1.996  -9.472  26.120  0.00  0.00    +0.110 C 
ATOM      4  N   UNL     1       2.743  -9.822  27.277  0.00  0.00    -0.215 NA
ATOM      5  C   UNL     1       3.914  -9.059  27.511  0.00  0.00    +0.107 C 
ATOM      6  C   UNL     1       4.227  -8.019  26.494  0.00  0.00    +0.109 C 
ENDROOT
BRANCH   5   7
ATOM      7  C   UNL     1       5.087 -10.035  27.685  0.00  0.00    +0.160 C 
ATOM      8  C   UNL     1       6.270  -9.354  28.336  0.00  0.00    +0.221 C 
ATOM      9  O   UNL     1       7.283  -9.016  27.467  0.00  0.00    -0.448 OA
ATOM     10  C   UNL     1       8.451  -9.600  27.122  0.00  0.00    +0.317 C 
ATOM     11  O   UNL     1       9.585  -9.096  27.339  0.00  0.00    -0.250 OA
ATOM     12  C   UNL     1       8.436 -10.921  26.442  0.00  0.00    +0.113 C 
ATOM     13  C   UNL     1       8.127 -12.061  27.362  0.00  0.00    +0.059 C 
ATOM     14  C   UNL     1       6.672 -12.407  27.284  0.00  0.00    +0.209 C 
ATOM     15  O   UNL     1       6.088 -11.736  26.195  0.00  0.00    -0.448 OA
ATOM     16  C   UNL     1       5.407 -10.541  26.337  0.00  0.00    +0.322 C 
ATOM     17  O   UNL     1       5.064  -9.892  25.303  0.00  0.00    -0.250 OA
ENDBRANCH   5   7
BRANCH   1  21
ATOM     18  C   UNL     1       3.360  -3.464  24.315  0.00  0.00    +0.015 C 
ATOM     19  C   UNL     1       2.998  -3.635  25.642  0.00  0.00    +0.006 C 
ATOM     20  C   UNL     1       2.896  -4.890  26.203  0.00  0.00    +0.015 C 
ATOM     21  C   UNL     1       3.151  -6.027  25.463  0.00  0.00    +0.048 C 
ATOM     22  C   UNL     1       3.510  -5.829  24.147  0.00  0.00    +0.015 C 
ATOM     23  C   UNL     1       3.617  -4.581  23.570  0.00  0.00    +0.006 C 
BRANCH  18  24
ATOM     24  S   UNL     1       3.497  -1.834  23.570  0.00  0.00    -0.158 S 
ATOM     25  H   UNL     1       3.290  -1.989  22.235  0.00  0.00    +0.099 HD
BRANCH  24  26
ATOM     26  C   UNL     1       4.873  -0.998  23.740  0.00  0.00    +0.137 C 
BRANCH  26  27
ATOM     27  N   UNL     1       4.996   0.286  23.157  0.00  0.00    -0.306 NA
ATOM     28  H   UNL     1       5.921   0.665  23.362  0.00  0.00    +0.120 HD
ATOM     29  H   UNL     1       4.282   0.904  23.542  0.00  0.00    +0.120 HD
ENDBRANCH  26  27
BRANCH  26  30
ATOM     30  S   UNL     1       6.227  -1.693  24.657  0.00  0.00    -0.143 S 
ATOM     31  H   UNL     1       5.878  -2.924  25.118  0.00  0.00    +0.104 HD
ENDBRANCH  26  30
ENDBRANCH  24  26
ENDBRANCH  18  24
ENDBRANCH   1  21
TORSDOF 6
