REMARK  Name = =
REMARK  7 active torsions:
REMARK  status: ('A' for Active; 'I' for Inactive)
REMARK    1  A    between atoms: C_1  and  S_38
REMARK    2  A    between atoms: C_4  and  N_20
REMARK    3  A    between atoms: C_6  and  C_7
REMARK    4  A    between atoms: C_24  and  C_26
REMARK    5  A    between atoms: C_37  and  S_38
REMARK    6  A    between atoms: C_37  and  N_39
REMARK    7  A    between atoms: C_37  and  S_40
REMARK                            x       y       z     vdW  Elec       q    Type
REMARK                         _______ _______ _______ _____ _____    ______ ____
ROOT
ATOM      1  C   UNL     1       2.432  -3.215  24.523  0.00  0.00    +0.012 C 
ATOM      2  C   UNL     1       1.661  -2.081  24.680  0.00  0.00    +0.006 C 
ATOM      3  C   UNL     1       1.394  -1.270  23.585  0.00  0.00    +0.015 C 
ATOM      4  C   UNL     1       1.903  -1.610  22.352  0.00  0.00    +0.048 C 
ATOM      5  C   UNL     1       2.678  -2.767  22.240  0.00  0.00    +0.011 C 
ATOM      6  C   UNL     1       2.959  -3.590  23.309  0.00  0.00    -0.008 C 
ENDROOT
BRANCH   6   7
ATOM      7  C   UNL     1       3.776  -4.786  23.119  0.00  0.00    +0.067 C 
ATOM      8  C   UNL     1       4.951  -4.473  22.256  0.00  0.00    -0.014 C 
ATOM      9  C   UNL     1       4.980  -5.320  21.173  0.00  0.00    -0.004 C 
ATOM     10  C   UNL     1       3.830  -6.194  21.301  0.00  0.00    -0.004 C 
ATOM     11  C   UNL     1       3.109  -5.893  22.435  0.00  0.00    -0.014 C 
ATOM     12  C   UNL     1       1.966  -6.591  22.771  0.00  0.00    -0.004 C 
ATOM     13  C   UNL     1       1.547  -7.613  21.939  0.00  0.00    -0.000 C 
ATOM     14  C   UNL     1       2.243  -7.940  20.795  0.00  0.00    -0.000 C 
ATOM     15  C   UNL     1       3.376  -7.222  20.497  0.00  0.00    -0.000 C 
ATOM     16  C   UNL     1       6.014  -5.157  20.278  0.00  0.00    -0.000 C 
ATOM     17  C   UNL     1       7.010  -4.211  20.398  0.00  0.00    -0.000 C 
ATOM     18  C   UNL     1       6.963  -3.375  21.486  0.00  0.00    -0.000 C 
ATOM     19  C   UNL     1       5.948  -3.502  22.404  0.00  0.00    -0.004 C 
ENDBRANCH   6   7
BRANCH   4  20
ATOM     20  N   UNL     1       1.632  -0.784  21.235  0.00  0.00    -0.305 N 
ATOM     21  C   UNL     1       2.569   0.214  20.751  0.00  0.00    +0.110 C 
ATOM     22  C   UNL     1       2.424   0.222  19.225  0.00  0.00    +0.110 C 
ATOM     23  N   UNL     1       1.146   0.718  18.835  0.00  0.00    -0.215 NA
ATOM     24  C   UNL     1       0.041   0.196  19.613  0.00  0.00    +0.107 C 
ATOM     25  C   UNL     1       0.390  -0.915  20.534  0.00  0.00    +0.109 C 
BRANCH  24  26
ATOM     26  C   UNL     1      -0.681   1.349  20.219  0.00  0.00    +0.160 C 
ATOM     27  C   UNL     1      -2.078   1.455  19.607  0.00  0.00    +0.221 C 
ATOM     28  O   UNL     1      -2.888   2.176  20.502  0.00  0.00    -0.448 OA
ATOM     29  C   UNL     1      -3.807   1.584  21.339  0.00  0.00    +0.317 C 
ATOM     30  O   UNL     1      -4.276   2.264  22.314  0.00  0.00    -0.250 OA
ATOM     31  C   UNL     1      -4.305   0.201  21.201  0.00  0.00    +0.113 C 
ATOM     32  C   UNL     1      -3.697  -0.764  22.161  0.00  0.00    +0.059 C 
ATOM     33  C   UNL     1      -2.216  -0.549  22.395  0.00  0.00    +0.209 C 
ATOM     34  O   UNL     1      -1.830   0.786  22.346  0.00  0.00    -0.448 OA
ATOM     35  C   UNL     1      -0.749   1.342  21.698  0.00  0.00    +0.322 C 
ATOM     36  O   UNL     1       0.246   1.877  22.303  0.00  0.00    -0.250 OA
ENDBRANCH  24  26
ENDBRANCH   4  20
BRANCH   1  37
ATOM     37  S   UNL     1       2.763  -4.246  25.942  0.00  0.00    -0.159 S 
ATOM     38  H   UNL     1       3.403  -5.349  25.469  0.00  0.00    +0.099 HD
BRANCH  37  39
ATOM     39  C   UNL     1       3.641  -3.720  27.214  0.00  0.00    +0.137 C 
BRANCH  39  40
ATOM     40  N   UNL     1       4.157  -2.397  27.189  0.00  0.00    -0.306 NA
ATOM     41  H   UNL     1       4.679  -2.219  28.047  0.00  0.00    +0.120 HD
ATOM     42  H   UNL     1       3.386  -1.733  27.116  0.00  0.00    +0.120 HD
ENDBRANCH  39  40
BRANCH  39  43
ATOM     43  S   UNL     1       3.928  -4.802  28.585  0.00  0.00    -0.143 S 
ATOM     44  H   UNL     1       3.327  -5.999  28.351  0.00  0.00    +0.104 HD
ENDBRANCH  39  43
ENDBRANCH  37  39
ENDBRANCH   1  37
TORSDOF 7
