REMARK  Name = =
REMARK  12 active torsions:
REMARK  status: ('A' for Active; 'I' for Inactive)
REMARK    1  A    between atoms: C_1  and  C_8
REMARK    2  A    between atoms: C_1  and  N_19
REMARK    3  A    between atoms: C_4  and  O_12
REMARK    4  A    between atoms: C_11  and  O_13
REMARK    5  A    between atoms: O_13  and  C_14
REMARK    6  A    between atoms: C_14  and  C_16
REMARK    7  A    between atoms: C_16  and  O_18
REMARK    8  A    between atoms: N_19  and  N_20
REMARK    9  A    between atoms: N_20  and  C_21
REMARK   10  A    between atoms: N_23  and  N_24
REMARK   11  A    between atoms: C_25  and  O_27
REMARK   12  A    between atoms: P_29  and  O_31
REMARK                            x       y       z     vdW  Elec       q    Type
REMARK                         _______ _______ _______ _____ _____    ______ ____
ROOT
ATOM      1  C   UNL     1      53.020 154.489  26.501  0.00  0.00    +0.016 C 
ATOM      2  C   UNL     1      53.022 155.635  27.328  0.00  0.00    +0.012 C 
ATOM      3  C   UNL     1      53.408 156.844  26.793  0.00  0.00    +0.129 C 
ATOM      4  C   UNL     1      53.780 156.881  25.455  0.00  0.00    +0.036 C 
ATOM      5  C   UNL     1      53.772 155.760  24.662  0.00  0.00    +0.003 C 
ATOM      6  C   UNL     1      53.384 154.533  25.193  0.00  0.00    -0.001 C 
ATOM      7  C   UNL     1      52.566 155.447  28.701  0.00  0.00    +0.043 C 
ATOM      8  C   UNL     1      51.222 154.708  28.638  0.00  0.00    +0.010 C 
ATOM      9  C   UNL     1      51.334 153.407  27.937  0.00  0.00    +0.049 C 
ATOM     10  C   UNL     1      52.617 153.237  27.152  0.00  0.00    +0.188 C 
ENDROOT
BRANCH   3  11
ATOM     11  O   UNL     1      53.424 157.967  27.582  0.00  0.00    -0.506 OA
ATOM     12  H   UNL     1      53.168 157.911  28.482  0.00  0.00    +0.292 HD
ENDBRANCH   3  11
BRANCH   7  13
ATOM     13  C   UNL     1      52.322 156.663  29.537  0.00  0.00    +0.094 C 
BRANCH  13  14
ATOM     14  N   UNL     1      51.317 157.540  29.117  0.00  0.00    -0.207 NA
ATOM     15  H   UNL     1      50.471 156.989  28.973  0.00  0.00    +0.147 HD
BRANCH  14  16
ATOM     16  N   UNL     1      50.996 158.569  29.943  0.00  0.00    -0.113 NA
BRANCH  16  17
ATOM     17  C   UNL     1      51.740 159.633  30.440  0.00  0.00    +0.351 C 
ATOM     18  O   UNL     1      51.121 160.438  31.252  0.00  0.00    -0.248 OA
ATOM     19  N   UNL     1      53.085 159.976  30.189  0.00  0.00    -0.213 N 
ATOM     20  H   UNL     1      53.634 159.428  29.583  0.00  0.00    +0.175 HD
BRANCH  19  21
ATOM     21  N   UNL     1      53.638 161.121  30.820  0.00  0.00    -0.198 N 
ATOM     22  C   UNL     1      55.027 161.431  30.699  0.00  0.00    +0.414 C 
ATOM     23  O   UNL     1      55.725 160.649  30.016  0.00  0.00    -0.225 OA
ATOM     24  H   UNL     1      53.055 161.711  31.350  0.00  0.00    +0.176 HD
BRANCH  22  25
ATOM     25  O   UNL     1      55.597 162.548  31.308  0.00  0.00    -0.465 OA
ATOM     26  H   UNL     1      55.064 163.127  31.817  0.00  0.00    +0.297 HD
ENDBRANCH  22  25
ENDBRANCH  19  21
ENDBRANCH  16  17
ENDBRANCH  14  16
ENDBRANCH  13  14
ENDBRANCH   7  13
BRANCH  10  27
ATOM     27  O   UNL     1      52.547 152.118  26.354  0.00  0.00    -0.468 OA
BRANCH  27  28
ATOM     28  C   UNL     1      53.497 151.338  25.794  0.00  0.00    +0.214 C 
ATOM     29  C   UNL     1      54.722 151.746  25.459  0.00  0.00    +0.047 C 
BRANCH  28  30
ATOM     30  C   UNL     1      53.148 149.929  25.534  0.00  0.00    +0.373 C 
ATOM     31  O   UNL     1      52.104 149.398  25.975  0.00  0.00    -0.242 OA
BRANCH  30  32
ATOM     32  O   UNL     1      53.977 149.097  24.769  0.00  0.00    -0.475 OA
ATOM     33  H   UNL     1      54.774 149.433  24.409  0.00  0.00    +0.296 HD
ENDBRANCH  30  32
ENDBRANCH  28  30
ENDBRANCH  27  28
ENDBRANCH  10  27
TORSDOF 11
REMARK  Name = =
REMARK  12 active torsions:
REMARK  status: ('A' for Active; 'I' for Inactive)
REMARK    1  A    between atoms: C_1  and  C_8
REMARK    2  A    between atoms: C_1  and  N_19
REMARK    3  A    between atoms: C_4  and  O_12
REMARK    4  A    between atoms: C_11  and  O_13
REMARK    5  A    between atoms: O_13  and  C_14
REMARK    6  A    between atoms: C_14  and  C_16
REMARK    7  A    between atoms: C_16  and  O_18
REMARK    8  A    between atoms: N_19  and  N_20
REMARK    9  A    between atoms: N_20  and  C_21
REMARK   10  A    between atoms: N_23  and  N_24
REMARK   11  A    between atoms: C_25  and  O_27
REMARK   12  A    between atoms: P_29  and  O_31
REMARK                            x       y       z     vdW  Elec       q    Type
REMARK                         _______ _______ _______ _____ _____    ______ ____
ROOT
ATOM      1  I   UNL     1      48.923 158.514  30.529  0.00  0.00    -0.107 I 
ATOM      2  H   UNL     1      50.484 158.514  30.529  0.00  0.00    +0.107 HD
ENDROOT
TORSDOF 0
REMARK  Name = =
REMARK  12 active torsions:
REMARK  status: ('A' for Active; 'I' for Inactive)
REMARK    1  A    between atoms: C_1  and  C_8
REMARK    2  A    between atoms: C_1  and  N_19
REMARK    3  A    between atoms: C_4  and  O_12
REMARK    4  A    between atoms: C_11  and  O_13
REMARK    5  A    between atoms: O_13  and  C_14
REMARK    6  A    between atoms: C_14  and  C_16
REMARK    7  A    between atoms: C_16  and  O_18
REMARK    8  A    between atoms: N_19  and  N_20
REMARK    9  A    between atoms: N_20  and  C_21
REMARK   10  A    between atoms: N_23  and  N_24
REMARK   11  A    between atoms: C_25  and  O_27
REMARK   12  A    between atoms: P_29  and  O_31
REMARK                            x       y       z     vdW  Elec       q    Type
REMARK                         _______ _______ _______ _____ _____    ______ ____
ROOT
ATOM      1  P   UNL     1      48.368 160.826  30.975  0.00  0.00    +0.193 P 
ATOM      2  O   UNL     1      46.896 161.033  30.619  0.00  0.00    -0.182 OA
ATOM      3  H   UNL     1      48.702 159.502  30.776  0.00  0.00    +0.121 HD
ENDROOT
BRANCH   1   4
ATOM      4  O   UNL     1      48.649 161.234  32.592  0.00  0.00    -0.349 OA
ATOM      5  H   UNL     1      48.416 162.164  32.736  0.00  0.00    +0.217 HD
ENDBRANCH   1   4
TORSDOF 1
