REMARK  Name = =
REMARK  8 active torsions:
REMARK  status: ('A' for Active; 'I' for Inactive)
REMARK    1  A    between atoms: C_2  and  S_11
REMARK    2  A    between atoms: C_8  and  O_18
REMARK    3  A    between atoms: S_11  and  N_13
REMARK    4  A    between atoms: S_11  and  S_16
REMARK    5  A    between atoms: S_16  and  S_17
REMARK    6  A    between atoms: O_18  and  S_19
REMARK    7  A    between atoms: S_19  and  C_20
REMARK    8  A    between atoms: C_20  and  O_22
REMARK                            x       y       z     vdW  Elec       q    Type
REMARK                         _______ _______ _______ _____ _____    ______ ____
ROOT
ATOM      1  O   UNL     1      50.706 156.840  28.953  0.00  0.00    -0.467 OA
ATOM      2  C   UNL     1      50.051 156.857  30.206  0.00  0.00    +0.228 C 
ATOM      3  C   UNL     1      50.949 156.109  31.181  0.00  0.00    +0.061 C 
ATOM      4  C   UNL     1      50.924 154.661  30.763  0.00  0.00    +0.034 C 
ATOM      5  C   UNL     1      51.281 154.579  29.340  0.00  0.00    +0.012 C 
ATOM      6  C   UNL     1      51.174 155.634  28.469  0.00  0.00    +0.139 C 
ATOM      7  C   UNL     1      51.535 155.456  27.154  0.00  0.00    +0.075 C 
ATOM      8  C   UNL     1      52.005 154.238  26.680  0.00  0.00    +0.159 C 
ATOM      9  C   UNL     1      52.116 153.170  27.549  0.00  0.00    +0.038 C 
ATOM     10  C   UNL     1      51.754 153.355  28.862  0.00  0.00    +0.002 C 
ENDROOT
BRANCH   2  11
ATOM     11  S   UNL     1      49.644 158.392  30.671  0.00  0.00    -0.020 S 
BRANCH  11  12
ATOM     12  N   UNL     1      50.327 159.260  31.265  0.00  0.00    -0.222 NA
ATOM     13  C   UNL     1      50.267 160.163  32.499  0.00  0.00    +0.102 C 
ATOM     14  C   UNL     1      51.142 160.454  31.361  0.00  0.00    +0.102 C 
ENDBRANCH  11  12
BRANCH  11  15
ATOM     15  S   UNL     1      48.105 158.473  29.567  0.00  0.00    -0.019 S 
BRANCH  15  16
ATOM     16  S   UNL     1      47.914 160.201  28.716  0.00  0.00    -0.099 S 
ATOM     17  H   UNL     1      46.798 160.203  27.939  0.00  0.00    +0.115 HD
ENDBRANCH  15  16
ENDBRANCH  11  15
ENDBRANCH   2  11
BRANCH   8  18
ATOM     18  O   UNL     1      52.365 154.070  25.355  0.00  0.00    -0.414 OA
BRANCH  18  19
ATOM     19  S   UNL     1      53.846 154.698  24.732  0.00  0.00    +0.140 S 
BRANCH  19  20
ATOM     20  C   UNL     1      54.715 153.410  23.825  0.00  0.00    +0.238 C 
ATOM     21  S   UNL     1      54.399 151.844  24.065  0.00  0.00    -0.001 S 
BRANCH  20  22
ATOM     22  O   UNL     1      55.683 153.773  22.894  0.00  0.00    -0.494 OA
ATOM     23  H   UNL     1      56.143 153.112  22.415  0.00  0.00    +0.293 HD
ENDBRANCH  20  22
ENDBRANCH  19  20
ENDBRANCH  18  19
ENDBRANCH   8  18
TORSDOF 8
REMARK  Name = =
REMARK  8 active torsions:
REMARK  status: ('A' for Active; 'I' for Inactive)
REMARK    1  A    between atoms: C_2  and  S_11
REMARK    2  A    between atoms: C_8  and  O_18
REMARK    3  A    between atoms: S_11  and  N_13
REMARK    4  A    between atoms: S_11  and  S_16
REMARK    5  A    between atoms: S_16  and  S_17
REMARK    6  A    between atoms: O_18  and  S_19
REMARK    7  A    between atoms: S_19  and  C_20
REMARK    8  A    between atoms: C_20  and  O_22
REMARK                            x       y       z     vdW  Elec       q    Type
REMARK                         _______ _______ _______ _____ _____    ______ ____
ROOT
ATOM      1  H   UNK     1      48.357 158.004  31.894  0.00  0.00    +0.000 HD
ENDROOT
TORSDOF 0
