REMARK  Name = =
REMARK  7 active torsions:
REMARK  status: ('A' for Active; 'I' for Inactive)
REMARK    1  A    between atoms: S_7  and  N_10
REMARK    2  A    between atoms: O_12  and  C_21
REMARK    3  A    between atoms: O_13  and  C_17
REMARK    4  A    between atoms: O_13  and  C_36
REMARK    5  A    between atoms: C_17  and  C_18
REMARK    6  A    between atoms: C_19  and  C_20
REMARK    7  A    between atoms: C_25  and  C_30
REMARK                            x       y       z     vdW  Elec       q    Type
REMARK                         _______ _______ _______ _____ _____    ______ ____
ROOT
ATOM      1  C   UNL     1      53.566 154.011  26.132  0.00  0.00    +0.011 C 
ATOM      2  C   UNL     1      53.207 154.076  27.463  0.00  0.00    +0.015 C 
ATOM      3  C   UNL     1      53.890 153.222  28.326  0.00  0.00    +0.026 C 
ATOM      4  C   UNL     1      54.870 152.357  27.903  0.00  0.00    -0.030 C 
ATOM      5  C   UNL     1      55.188 152.335  26.565  0.00  0.00    -0.026 C 
ATOM      6  C   UNL     1      54.549 153.151  25.667  0.00  0.00    +0.048 C 
ATOM      7  C   UNL     1      52.955 154.184  26.804  0.00  0.00    +0.037 C 
ATOM      8  C   UNL     1      54.214 154.610  26.361  0.00  0.00    +0.038 C 
ATOM      9  C   UNL     1      55.144 153.671  25.774  0.00  0.00    -0.037 C 
ATOM     10  C   UNL     1      56.306 153.994  25.268  0.00  0.00    -0.008 C 
ENDROOT
BRANCH   7  13
ATOM     11  S   UNL     1      51.991 155.137  28.046  0.00  0.00    -0.054 S 
ATOM     12  C   UNL     1      52.362 156.363  27.506  0.00  0.00    +0.042 C 
ATOM     13  C   UNL     1      52.044 155.042  27.365  0.00  0.00    +0.140 C 
BRANCH  13  14
ATOM     14  O   UNL     1      50.607 154.699  27.648  0.00  0.00    -0.348 OA
BRANCH  14  15
ATOM     15  C   UNL     1      50.212 153.568  26.736  0.00  0.00    +0.143 C 
ATOM     16  C   UNL     1      51.157 152.463  26.433  0.00  0.00    +0.035 C 
ENDBRANCH  14  15
ENDBRANCH  13  14
ENDBRANCH   7  13
BRANCH   8  17
ATOM     17  C   UNL     1      54.537 155.938  26.498  0.00  0.00    +0.021 C 
ATOM     18  C   UNL     1      53.621 156.810  27.065  0.00  0.00    +0.219 C 
BRANCH  18  19
ATOM     19  O   UNL     1      52.204 156.583  27.748  0.00  0.00    -0.300 OA
ATOM     20  O   UNL     1      51.578 157.342  28.051  0.00  0.00    +0.028 OA
ENDBRANCH  18  19
ENDBRANCH   8  17
TORSDOF 5
REMARK  Name = =
REMARK  7 active torsions:
REMARK  status: ('A' for Active; 'I' for Inactive)
REMARK    1  A    between atoms: S_7  and  N_10
REMARK    2  A    between atoms: O_12  and  C_21
REMARK    3  A    between atoms: O_13  and  C_17
REMARK    4  A    between atoms: O_13  and  C_36
REMARK    5  A    between atoms: C_17  and  C_18
REMARK    6  A    between atoms: C_19  and  C_20
REMARK    7  A    between atoms: C_25  and  C_30
REMARK                            x       y       z     vdW  Elec       q    Type
REMARK                         _______ _______ _______ _____ _____    ______ ____
ROOT
ATOM      1  S   UNL     1      52.767 155.037  24.998  0.00  0.00    +0.044 S 
ATOM      2  O   UNL     1      51.280 154.979  25.081  0.00  0.00    -0.061 OA
ATOM      3  O   UNL     1      53.135 154.596  23.608  0.00  0.00    -0.061 OA
ENDROOT
BRANCH   1   4
ATOM      4  N   UNL     1      53.371 156.645  25.182  0.00  0.00    -0.208 NA
ATOM      5  H   UNL     1      53.144 156.989  26.115  0.00  0.00    +0.144 HD
ATOM      6  H   UNL     1      52.942 157.251  24.483  0.00  0.00    +0.144 HD
ENDBRANCH   1   4
TORSDOF 1
REMARK  Name = =
REMARK  7 active torsions:
REMARK  status: ('A' for Active; 'I' for Inactive)
REMARK    1  A    between atoms: S_7  and  N_10
REMARK    2  A    between atoms: O_12  and  C_21
REMARK    3  A    between atoms: O_13  and  C_17
REMARK    4  A    between atoms: O_13  and  C_36
REMARK    5  A    between atoms: C_17  and  C_18
REMARK    6  A    between atoms: C_19  and  C_20
REMARK    7  A    between atoms: C_25  and  C_30
REMARK                            x       y       z     vdW  Elec       q    Type
REMARK                         _______ _______ _______ _____ _____    ______ ____
ROOT
ATOM      1  N   UNL     1      52.039 155.067  29.799  0.00  0.00    -0.273 NA
ATOM      2  H   UNL     1      53.059 155.067  29.799  0.00  0.00    +0.137 HD
ATOM      3  H   UNL     1      51.699 155.525  28.953  0.00  0.00    +0.137 HD
ENDROOT
TORSDOF 0
REMARK  Name = =
REMARK  7 active torsions:
REMARK  status: ('A' for Active; 'I' for Inactive)
REMARK    1  A    between atoms: S_7  and  N_10
REMARK    2  A    between atoms: O_12  and  C_21
REMARK    3  A    between atoms: O_13  and  C_17
REMARK    4  A    between atoms: O_13  and  C_36
REMARK    5  A    between atoms: C_17  and  C_18
REMARK    6  A    between atoms: C_19  and  C_20
REMARK    7  A    between atoms: C_25  and  C_30
REMARK                            x       y       z     vdW  Elec       q    Type
REMARK                         _______ _______ _______ _____ _____    ______ ____
ROOT
ATOM      1  C   UNL     1      50.739 155.077  32.702  0.00  0.00    +0.000 C 
ENDROOT
TORSDOF 0
REMARK  Name = =
REMARK  7 active torsions:
REMARK  status: ('A' for Active; 'I' for Inactive)
REMARK    1  A    between atoms: S_7  and  N_10
REMARK    2  A    between atoms: O_12  and  C_21
REMARK    3  A    between atoms: O_13  and  C_17
REMARK    4  A    between atoms: O_13  and  C_36
REMARK    5  A    between atoms: C_17  and  C_18
REMARK    6  A    between atoms: C_19  and  C_20
REMARK    7  A    between atoms: C_25  and  C_30
REMARK                            x       y       z     vdW  Elec       q    Type
REMARK                         _______ _______ _______ _____ _____    ______ ____
ROOT
ATOM      1  C   UNL     1      50.377 158.434  29.690  0.00  0.00    -0.044 C 
ATOM      2  C   UNL     1      49.985 159.672  29.603  0.00  0.00    -0.030 C 
ATOM      3  C   UNL     1      48.599 160.003  30.048  0.00  0.00    +0.051 C 
ATOM      4  C   UNL     1      47.647 158.891  29.868  0.00  0.00    -0.026 C 
ATOM      5  C   UNL     1      48.055 157.653  29.939  0.00  0.00    -0.026 C 
ATOM      6  C   UNL     1      49.477 157.368  30.201  0.00  0.00    +0.047 C 
ENDROOT
BRANCH   1   7
ATOM      7  C   UNL     1      51.740 158.022  29.269  0.00  0.00    +0.018 C 
ATOM      8  C   UNL     1      52.332 157.274  30.381  0.00  0.00    +0.004 C 
ATOM      9  C   UNL     1      53.074 158.074  31.149  0.00  0.00    +0.000 C 
ATOM     10  C   UNL     1      53.019 159.471  30.564  0.00  0.00    +0.000 C 
ATOM     11  C   UNL     1      52.699 159.190  29.112  0.00  0.00    +0.004 C 
ENDBRANCH   1   7
TORSDOF 1
