REMARK  Name = =
REMARK  6 active torsions:
REMARK  status: ('A' for Active; 'I' for Inactive)
REMARK    1  A    between atoms: C_1  and  N_31
REMARK    2  A    between atoms: C_9  and  C_16
REMARK    3  A    between atoms: N_31  and  N_32
REMARK    4  A    between atoms: N_31  and  O_37
REMARK    5  A    between atoms: N_32  and  S_33
REMARK    6  A    between atoms: S_33  and  N_36
REMARK                            x       y       z     vdW  Elec       q    Type
REMARK                         _______ _______ _______ _____ _____    ______ ____
ROOT
ATOM      1  C   UNL     1      54.069 154.034  24.620  0.00  0.00    +0.167 C 
ATOM      2  C   UNL     1      53.470 154.419  25.799  0.00  0.00    +0.116 C 
ATOM      3  C   UNL     1      53.358 155.758  26.153  0.00  0.00    +0.160 C 
ATOM      4  C   UNL     1      53.862 156.703  25.295  0.00  0.00    +0.038 C 
ATOM      5  C   UNL     1      54.466 156.361  24.110  0.00  0.00    +0.000 C 
ATOM      6  C   UNL     1      54.558 155.023  23.793  0.00  0.00    -0.000 C 
ATOM      7  O   UNL     1      52.770 156.079  27.304  0.00  0.00    -0.454 OA
ATOM      8  C   UNL     1      52.309 155.141  28.084  0.00  0.00    +0.151 C 
ATOM      9  C   UNL     1      51.698 155.447  29.277  0.00  0.00    +0.145 C 
ATOM     10  C   UNL     1      51.208 154.440  30.104  0.00  0.00    +0.184 C 
ATOM     11  O   UNL     1      50.660 154.772  31.180  0.00  0.00    -0.291 OA
ATOM     12  C   UNL     1      51.300 153.108  29.788  0.00  0.00    +0.040 C 
ATOM     13  C   UNL     1      51.905 152.768  28.602  0.00  0.00    +0.025 C 
ATOM     14  C   UNL     1      52.412 153.715  27.737  0.00  0.00    +0.112 C 
ATOM     15  N   UNL     1      53.004 153.421  26.582  0.00  0.00    -0.242 NA
ENDROOT
BRANCH   9  16
ATOM     16  C   UNL     1      51.587 156.854  29.636  0.00  0.00    +0.021 C 
ATOM     17  C   UNL     1      50.523 157.375  30.317  0.00  0.00    +0.151 C 
ATOM     18  C   UNL     1      50.385 158.719  30.678  0.00  0.00    +0.082 C 
ATOM     19  C   UNL     1      51.418 159.541  30.299  0.00  0.00    +0.045 C 
ATOM     20  C   UNL     1      52.505 159.067  29.615  0.00  0.00    +0.008 C 
ATOM     21  C   UNL     1      52.603 157.735  29.280  0.00  0.00    -0.001 C 
ATOM     22  S   UNL     1      51.322 161.281  30.722  0.00  0.00    -0.084 S 
ATOM     23  C   UNL     1      49.797 161.521  31.591  0.00  0.00    +0.043 C 
ATOM     24  C   UNL     1      48.968 160.457  31.808  0.00  0.00    +0.054 C 
ATOM     25  C   UNL     1      47.783 160.744  32.505  0.00  0.00    +0.015 C 
ATOM     26  C   UNL     1      47.454 161.996  32.949  0.00  0.00    +0.001 C 
ATOM     27  C   UNL     1      48.310 163.061  32.716  0.00  0.00    +0.001 C 
ATOM     28  C   UNL     1      49.485 162.777  32.026  0.00  0.00    +0.008 C 
ATOM     29  N   UNL     1      49.235 159.143  31.385  0.00  0.00    -0.310 N 
ATOM     30  F   UNL     1      49.533 156.519  30.666  0.00  0.00    -0.203 F 
ATOM     31  H   UNL     1      48.562 158.457  31.600  0.00  0.00    +0.152 HD
ENDBRANCH   9  16
BRANCH   1  32
ATOM     32  N   UNL     1      54.200 152.694  24.229  0.00  0.00    -0.085 NA
BRANCH  32  33
ATOM     33  N   UNL     1      53.641 151.788  25.105  0.00  0.00    -0.088 NA
ATOM     34  H   UNL     1      52.623 151.830  25.051  0.00  0.00    +0.171 HD
BRANCH  33  35
ATOM     35  S   UNL     1      54.203 150.205  24.626  0.00  0.00    +0.107 S 
ATOM     36  O   UNL     1      54.067 150.045  23.125  0.00  0.00    -0.140 OA
ATOM     37  O   UNL     1      53.361 149.130  25.244  0.00  0.00    -0.140 OA
BRANCH  35  38
ATOM     38  N   UNL     1      55.840 149.961  25.035  0.00  0.00    -0.192 NA
ATOM     39  H   UNL     1      55.958 150.064  26.043  0.00  0.00    +0.145 HD
ATOM     40  H   UNL     1      56.417 150.650  24.553  0.00  0.00    +0.145 HD
ENDBRANCH  35  38
ENDBRANCH  33  35
ENDBRANCH  32  33
BRANCH  32  41
ATOM     41  O   UNL     1      53.804 152.442  22.978  0.00  0.00    -0.295 OA
ATOM     42  H   UNL     1      54.206 153.087  22.376  0.00  0.00    +0.238 HD
ENDBRANCH  32  41
ENDBRANCH   1  32
TORSDOF 6
