MODEL 1
REMARK VINA RESULT:    -9.032      0.000      0.000
REMARK INTER + INTRA:         -10.929
REMARK INTER:                 -10.616
REMARK INTRA:                  -0.313
REMARK UNBOUND:                -0.313
REMARK  Name = =
REMARK  3 active torsions:
REMARK  status: ('A' for Active; 'I' for Inactive)
REMARK    1  A    between atoms: S_1  and  C_2
REMARK    2  A    between atoms: S_1  and  C_14
REMARK    3  A    between atoms: C_21  and  C_24
REMARK                            x       y       z     vdW  Elec       q    Type
REMARK                         _______ _______ _______ _____ _____    ______ ____
ROOT
ATOM      1  S   UNL     1      50.954 156.720  29.501  0.00  0.00    -0.056 S 
ENDROOT
BRANCH   1   2
ATOM      2  C   UNL     1      51.766 158.294  29.595  0.00  0.00    +0.280 C 
ATOM      3  O   UNL     1      52.965 158.415  29.143  0.00  0.00    -0.262 OA
ATOM      4  N   UNL     1      51.224 159.472  30.135  0.00  0.00    -0.251 N 
ATOM      5  C   UNL     1      52.012 160.705  30.294  0.00  0.00    +0.099 C 
ATOM      6  C   UNL     1      51.987 161.024  31.758  0.00  0.00    +0.027 C 
ATOM      7  C   UNL     1      50.653 161.047  32.406  0.00  0.00    +0.029 C 
ATOM      8  C   UNL     1      49.581 160.321  31.730  0.00  0.00    -0.008 C 
ATOM      9  C   UNL     1      48.296 160.394  32.187  0.00  0.00    -0.003 C 
ATOM     10  C   UNL     1      47.321 159.701  31.515  0.00  0.00    -0.000 C 
ATOM     11  C   UNL     1      47.603 158.927  30.384  0.00  0.00    +0.001 C 
ATOM     12  C   UNL     1      48.904 158.852  29.921  0.00  0.00    +0.015 C 
ATOM     13  C   UNL     1      49.882 159.549  30.597  0.00  0.00    +0.051 C 
ENDBRANCH   1   2
BRANCH   1  14
ATOM     14  C   UNL     1      51.964 155.455  28.685  0.00  0.00    +0.076 C 
ATOM     15  C   UNL     1      52.676 154.442  29.509  0.00  0.00    +0.045 C 
ATOM     16  C   UNL     1      51.963 153.171  29.167  0.00  0.00    +0.143 C 
ATOM     17  O   UNL     1      51.334 153.398  28.002  0.00  0.00    -0.357 OA
ATOM     18  C   UNL     1      51.349 154.676  27.585  0.00  0.00    +0.107 C 
ATOM     19  C   UNL     1      52.334 155.580  27.289  0.00  0.00    +0.046 C 
ATOM     20  C   UNL     1      53.310 156.389  26.808  0.00  0.00    +0.040 C 
ATOM     21  C   UNL     1      53.569 156.120  25.494  0.00  0.00    +0.042 C 
ATOM     22  C   UNL     1      52.663 155.038  25.126  0.00  0.00    -0.018 C 
ATOM     23  C   UNL     1      51.951 154.728  26.178  0.00  0.00    +0.052 C 
BRANCH  21  24
ATOM     24  C   UNL     1      54.531 156.774  24.662  0.00  0.00    +0.096 C 
ATOM     25  N   UNL     1      55.321 157.300  23.960  0.00  0.00    -0.191 NA
ENDBRANCH  21  24
ENDBRANCH   1  14
TORSDOF 3
ENDMDL
