REMARK  Name = =
REMARK  13 active torsions:
REMARK  status: ('A' for Active; 'I' for Inactive)
REMARK    1  A    between atoms: C_1  and  S_3
REMARK    2  A    between atoms: C_1  and  N_18
REMARK    3  A    between atoms: S_3  and  C_5
REMARK    4  A    between atoms: S_3  and  S_14
REMARK    5  A    between atoms: S_14  and  C_15
REMARK    6  A    between atoms: C_15  and  N_17
REMARK    7  A    between atoms: N_18  and  C_19
REMARK    8  A    between atoms: C_19  and  C_24
REMARK    9  A    between atoms: C_24  and  S_28
REMARK   10  A    between atoms: C_25  and  C_26
REMARK   11  A    between atoms: S_28  and  P_29
REMARK   12  A    between atoms: P_29  and  O_31
REMARK   13  A    between atoms: P_29  and  O_32
REMARK                            x       y       z     vdW  Elec       q    Type
REMARK                         _______ _______ _______ _____ _____    ______ ____
ROOT
ATOM      1  N   UNL     1      51.509 155.999  27.815  0.00  0.00    -0.313 N 
ATOM      2  H   UNL     1      51.482 156.779  27.215  0.00  0.00    +0.148 HD
ENDROOT
BRANCH   1   3
ATOM      3  C   UNL     1      51.156 156.223  29.172  0.00  0.00    +0.168 C 
ATOM      4  C   UNL     1      52.258 155.818  30.146  0.00  0.00    +0.121 C 
ATOM      5  N   UNL     1      51.150 155.286  30.965  0.00  0.00    -0.300 N 
ATOM      6  C   UNL     1      50.267 155.291  29.853  0.00  0.00    +0.244 C 
ATOM      7  O   UNL     1      49.190 154.718  29.607  0.00  0.00    -0.273 OA
ATOM      8  H   UNL     1      51.059 155.029  31.911  0.00  0.00    +0.150 HD
BRANCH   3   9
ATOM      9  C   UNL     1      50.847 157.717  29.476  0.00  0.00    +0.039 C 
ATOM     10  C   UNL     1      49.587 157.950  29.614  0.00  0.00    +0.004 C 
BRANCH  10  11
ATOM     11  C   UNL     1      48.847 159.154  29.896  0.00  0.00    +0.000 C 
ATOM     12  C   UNL     1      47.605 159.100  30.423  0.00  0.00    +0.000 C 
ENDBRANCH  10  11
BRANCH   9  13
ATOM     13  S   UNL     1      52.245 158.747  29.570  0.00  0.00    -0.006 S 
BRANCH  13  14
ATOM     14  P   UNL     1      52.028 160.556  30.519  0.00  0.00    +0.391 P 
ATOM     15  O   UNL     1      53.301 161.413  30.270  0.00  0.00    -0.246 OA
BRANCH  14  16
ATOM     16  O   UNL     1      50.766 161.497  29.931  0.00  0.00    -0.316 OA
ATOM     17  H   UNL     1      49.927 161.025  30.052  0.00  0.00    +0.221 HD
ENDBRANCH  14  16
BRANCH  14  18
ATOM     18  O   UNL     1      51.889 160.330  32.201  0.00  0.00    -0.316 OA
ATOM     19  H   UNL     1      52.627 159.785  32.516  0.00  0.00    +0.221 HD
ENDBRANCH  14  18
ENDBRANCH  13  14
ENDBRANCH   9  13
ENDBRANCH   3   9
ENDBRANCH   1   3
BRANCH   1  20
ATOM     20  C   UNL     1      51.893 154.774  27.245  0.00  0.00    +0.113 C 
ATOM     21  S   UNL     1      51.221 153.446  28.007  0.00  0.00    -0.028 S 
BRANCH  20  22
ATOM     22  S   UNL     1      52.894 154.500  25.960  0.00  0.00    -0.060 S 
BRANCH  22  23
ATOM     23  C   UNL     1      53.341 152.941  25.616  0.00  0.00    +0.035 C 
ATOM     24  C   UNL     1      52.614 151.890  26.198  0.00  0.00    +0.047 C 
ATOM     25  C   UNL     1      52.893 150.578  25.891  0.00  0.00    +0.177 C 
ATOM     26  C   UNL     1      53.882 150.227  25.015  0.00  0.00    +0.176 C 
ATOM     27  C   UNL     1      54.625 151.237  24.418  0.00  0.00    +0.041 C 
ATOM     28  C   UNL     1      54.319 152.548  24.748  0.00  0.00    +0.010 C 
ATOM     29  O   UNL     1      53.922 148.848  24.913  0.00  0.00    -0.435 OA
ATOM     30  C   UNL     1      52.665 148.371  25.353  0.00  0.00    +0.429 C 
ATOM     31  O   UNL     1      52.319 149.365  26.331  0.00  0.00    -0.435 OA
ENDBRANCH  22  23
BRANCH  22  32
ATOM     32  S   UNL     1      53.351 155.515  25.284  0.00  0.00    -0.034 S 
BRANCH  32  33
ATOM     33  C   UNL     1      54.681 156.269  24.610  0.00  0.00    +0.114 C 
ATOM     34  S   UNL     1      54.961 157.890  24.818  0.00  0.00    -0.028 S 
BRANCH  33  35
ATOM     35  N   UNL     1      55.648 155.595  23.825  0.00  0.00    -0.346 N 
ATOM     36  H   UNL     1      56.413 156.091  23.453  0.00  0.00    +0.143 HD
ATOM     37  H   UNL     1      55.556 154.630  23.652  0.00  0.00    +0.143 HD
ENDBRANCH  33  35
ENDBRANCH  32  33
ENDBRANCH  22  32
ENDBRANCH  20  22
ENDBRANCH   1  20
TORSDOF 13
REMARK  Name = =
REMARK  13 active torsions:
REMARK  status: ('A' for Active; 'I' for Inactive)
REMARK    1  A    between atoms: C_1  and  S_3
REMARK    2  A    between atoms: C_1  and  N_18
REMARK    3  A    between atoms: S_3  and  C_5
REMARK    4  A    between atoms: S_3  and  S_14
REMARK    5  A    between atoms: S_14  and  C_15
REMARK    6  A    between atoms: C_15  and  N_17
REMARK    7  A    between atoms: N_18  and  C_19
REMARK    8  A    between atoms: C_19  and  C_24
REMARK    9  A    between atoms: C_24  and  S_28
REMARK   10  A    between atoms: C_25  and  C_26
REMARK   11  A    between atoms: S_28  and  P_29
REMARK   12  A    between atoms: P_29  and  O_31
REMARK   13  A    between atoms: P_29  and  O_32
REMARK                            x       y       z     vdW  Elec       q    Type
REMARK                         _______ _______ _______ _____ _____    ______ ____
ROOT
ATOM      1  H   UNK     1      54.346 154.282  27.542  0.00  0.00    +0.000 HD
ENDROOT
TORSDOF 0
