REMARK  Name = =
REMARK  4 active torsions:
REMARK  status: ('A' for Active; 'I' for Inactive)
REMARK    1  A    between atoms: C_1  and  C_16
REMARK    2  A    between atoms: N_14  and  C_20
REMARK    3  A    between atoms: C_25  and  C_26
REMARK    4  A    between atoms: N_28  and  C_29
REMARK                            x       y       z     vdW  Elec       q    Type
REMARK                         _______ _______ _______ _____ _____    ______ ____
ROOT
ATOM      1  C   UNL     1       3.224  -2.782  23.507  0.00  0.00    -0.004 C 
ATOM      2  C   UNL     1       3.227  -3.700  24.534  0.00  0.00    +0.012 C 
ATOM      3  C   UNL     1       2.754  -3.436  25.827  0.00  0.00    +0.057 C 
ATOM      4  C   UNL     1       2.272  -2.142  25.972  0.00  0.00    +0.043 C 
ATOM      5  C   UNL     1       2.253  -1.208  24.974  0.00  0.00    +0.007 C 
ATOM      6  C   UNL     1       2.731  -1.516  23.721  0.00  0.00    -0.002 C 
ATOM      7  S   UNL     1       1.669  -1.596  27.542  0.00  0.00    -0.084 S 
ATOM      8  C   UNL     1       1.450  -3.078  28.503  0.00  0.00    +0.043 C 
ATOM      9  C   UNL     1       2.001  -4.265  28.114  0.00  0.00    +0.058 C 
ATOM     10  C   UNL     1       1.772  -5.323  28.980  0.00  0.00    +0.015 C 
ATOM     11  C   UNL     1       1.045  -5.180  30.141  0.00  0.00    +0.001 C 
ATOM     12  C   UNL     1       0.516  -3.980  30.487  0.00  0.00    +0.001 C 
ATOM     13  C   UNL     1       0.716  -2.914  29.663  0.00  0.00    +0.008 C 
ATOM     14  N   UNL     1       2.655  -4.461  26.814  0.00  0.00    -0.287 N 
ENDROOT
BRANCH   1  16
ATOM     15  N   UNL     1       2.957  -2.687  21.084  0.00  0.00    -0.268 NA
ATOM     16  C   UNL     1       3.764  -3.213  22.192  0.00  0.00    +0.109 C 
ATOM     17  C   UNL     1       5.105  -2.614  21.885  0.00  0.00    +0.164 C 
ATOM     18  O   UNL     1       5.077  -2.246  20.564  0.00  0.00    -0.336 OA
ATOM     19  C   UNL     1       3.936  -2.813  19.989  0.00  0.00    +0.217 C 
ATOM     20  H   UNL     1       2.683  -1.717  21.240  0.00  0.00    +0.126 HD
ENDBRANCH   1  16
BRANCH  14  21
ATOM     21  C   UNL     1       3.317  -5.695  26.742  0.00  0.00    +0.093 C 
ATOM     22  C   UNL     1       3.418  -6.623  25.622  0.00  0.00    +0.029 C 
ATOM     23  C   UNL     1       4.379  -7.742  26.252  0.00  0.00    +0.067 C 
ATOM     24  C   UNL     1       5.453  -6.846  26.674  0.00  0.00    +0.161 C 
ATOM     25  O   UNL     1       6.630  -7.154  26.719  0.00  0.00    -0.296 OA
ATOM     26  C   UNL     1       4.827  -5.553  27.014  0.00  0.00    +0.152 C 
BRANCH  26  27
ATOM     27  C   UNL     1       5.500  -4.565  26.143  0.00  0.00    +0.234 C 
ATOM     28  O   UNL     1       5.624  -4.718  24.929  0.00  0.00    -0.274 OA
ATOM     29  N   UNL     1       6.013  -3.401  26.757  0.00  0.00    -0.284 N 
ATOM     30  H   UNL     1       5.886  -3.325  27.730  0.00  0.00    +0.155 HD
BRANCH  29  31
ATOM     31  C   UNL     1       6.686  -2.339  26.125  0.00  0.00    +0.050 C 
ATOM     32  C   UNL     1       6.983  -1.213  26.899  0.00  0.00    +0.015 C 
ATOM     33  C   UNL     1       7.635  -0.114  26.398  0.00  0.00    +0.001 C 
ATOM     34  C   UNL     1       8.027  -0.092  25.068  0.00  0.00    +0.000 C 
ATOM     35  C   UNL     1       7.756  -1.178  24.269  0.00  0.00    +0.001 C 
ATOM     36  C   UNL     1       7.090  -2.274  24.824  0.00  0.00    +0.015 C 
ENDBRANCH  29  31
ENDBRANCH  26  27
ENDBRANCH  14  21
TORSDOF 4
