REMARK  Name = =
REMARK  3 active torsions:
REMARK  status: ('A' for Active; 'I' for Inactive)
REMARK    1  A    between atoms: C_1  and  C_19
REMARK    2  A    between atoms: C_1  and  C_29
REMARK    3  A    between atoms: C_16  and  C_24
REMARK                            x       y       z     vdW  Elec       q    Type
REMARK                         _______ _______ _______ _____ _____    ______ ____
ROOT
ATOM      1  C   UNL     1      52.122 154.560  28.367  0.00  0.00    +0.077 C 
ATOM      2  C   UNL     1      50.763 154.997  27.873  0.00  0.00    +0.010 C 
ATOM      3  C   UNL     1      50.135 156.061  28.706  0.00  0.00    +0.005 C 
ATOM      4  C   UNL     1      51.097 156.770  29.623  0.00  0.00    +0.018 C 
ATOM      5  C   UNL     1      52.447 156.972  28.993  0.00  0.00    +0.005 C 
ATOM      6  C   UNL     1      52.422 157.936  27.852  0.00  0.00    +0.005 C 
ATOM      7  C   UNL     1      51.828 159.264  28.180  0.00  0.00    +0.021 C 
ATOM      8  C   UNL     1      50.850 159.227  29.311  0.00  0.00    -0.052 C 
ATOM      9  C   UNL     1      50.529 158.098  29.956  0.00  0.00    -0.052 C 
ATOM     10  C   UNL     1      49.539 158.248  31.056  0.00  0.00    +0.021 C 
ATOM     11  C   UNL     1      49.973 159.423  31.942  0.00  0.00    +0.005 C 
ATOM     12  C   UNL     1      50.176 160.679  31.245  0.00  0.00    +0.006 C 
ATOM     13  C   UNL     1      50.214 160.470  29.738  0.00  0.00    +0.018 C 
ATOM     14  C   UNL     1      48.801 160.669  29.301  0.00  0.00    +0.004 C 
ATOM     15  C   UNL     1      48.047 161.287  30.460  0.00  0.00    +0.003 C 
ATOM     16  C   UNL     1      49.170 161.754  31.343  0.00  0.00    +0.029 C 
ATOM     17  C   UNL     1      53.083 155.694  28.526  0.00  0.00    +0.010 C 
ENDROOT
BRANCH   1  19
ATOM     18  O   UNL     1      53.809 152.958  27.730  0.00  0.00    -0.330 OA
ATOM     19  C   UNL     1      52.687 153.629  27.285  0.00  0.00    +0.239 C 
ATOM     20  O   UNL     1      53.118 154.473  26.237  0.00  0.00    -0.330 OA
ATOM     21  C   UNL     1      53.309 153.660  25.135  0.00  0.00    +0.147 C 
ATOM     22  C   UNL     1      54.184 152.478  25.395  0.00  0.00    +0.064 C 
ATOM     23  C   UNL     1      54.106 151.964  26.810  0.00  0.00    +0.147 C 
ENDBRANCH   1  19
BRANCH  16  24
ATOM     24  C   UNL     1      48.789 162.265  32.654  0.00  0.00    +0.146 C 
ATOM     25  N   UNL     1      47.526 161.950  33.185  0.00  0.00    -0.246 NA
ATOM     26  C   UNL     1      47.731 161.472  34.389  0.00  0.00    +0.194 C 
ATOM     27  N   UNL     1      49.114 161.458  34.682  0.00  0.00    -0.225 NA
ATOM     28  C   UNL     1      49.792 161.915  33.696  0.00  0.00    +0.098 C 
ENDBRANCH  16  24
BRANCH   1  29
ATOM     29  C   UNL     1      52.047 153.771  29.606  0.00  0.00    +0.020 C 
ATOM     30  S   UNL     1      50.864 153.057  29.932  0.00  0.00    -0.055 S 
ENDBRANCH   1  29
TORSDOF 3
