REMARK  Name = =
REMARK  11 active torsions:
REMARK  status: ('A' for Active; 'I' for Inactive)
REMARK    1  A    between atoms: N_1  and  C_2
REMARK    2  A    between atoms: N_1  and  N_9
REMARK    3  A    between atoms: N_1  and  C_24
REMARK    4  A    between atoms: C_3  and  N_8
REMARK    5  A    between atoms: N_9  and  N_22
REMARK    6  A    between atoms: N_12  and  S_13
REMARK    7  A    between atoms: C_24  and  N_25
REMARK    8  A    between atoms: C_24  and  O_31
REMARK    9  A    between atoms: C_24  and  C_38
REMARK   10  A    between atoms: O_31  and  C_32
REMARK   11  A    between atoms: C_38  and  C_39
REMARK                            x       y       z     vdW  Elec       q    Type
REMARK                         _______ _______ _______ _____ _____    ______ ____
ROOT
ATOM      1  N   UNL     1       2.453  -5.193  28.588  0.00  0.00    -0.164 N 
ENDROOT
BRANCH   1   2
ATOM      2  C   UNL     1       1.841  -5.661  29.786  0.00  0.00    +0.130 C 
ATOM      3  C   UNL     1       1.097  -6.723  30.222  0.00  0.00    +0.103 C 
ATOM      4  C   UNL     1       1.143  -6.200  31.511  0.00  0.00    +0.250 C 
ATOM      5  O   UNL     1       0.673  -6.582  32.627  0.00  0.00    -0.282 OA
ATOM      6  C   UNL     1       1.886  -5.143  31.072  0.00  0.00    +0.252 C 
ATOM      7  O   UNL     1       2.410  -4.108  31.592  0.00  0.00    -0.282 OA
BRANCH   3   8
ATOM      8  N   UNL     1       0.480  -7.924  29.714  0.00  0.00    -0.353 N 
ATOM      9  H   UNL     1       0.547  -8.145  28.757  0.00  0.00    +0.142 HD
ATOM     10  H   UNL     1      -0.008  -8.523  30.324  0.00  0.00    +0.142 HD
ENDBRANCH   3   8
ENDBRANCH   1   2
BRANCH   1  11
ATOM     11  N   UNL     1       3.827  -5.394  28.346  0.00  0.00    -0.080 N 
ATOM     12  C   UNL     1       4.495  -6.451  27.740  0.00  0.00    +0.346 C 
ATOM     13  O   UNL     1       5.790  -6.335  27.677  0.00  0.00    -0.249 OA
ATOM     14  N   UNL     1       3.931  -7.602  27.200  0.00  0.00    -0.247 N 
ATOM     15  H   UNL     1       2.962  -7.776  27.201  0.00  0.00    +0.164 HD
BRANCH  14  16
ATOM     16  S   UNL     1       5.168  -8.780  26.479  0.00  0.00    -0.082 S 
ATOM     17  C   UNL     1       5.853  -8.004  24.940  0.00  0.00    +0.095 C 
ATOM     18  C   UNL     1       6.879  -8.889  24.447  0.00  0.00    +0.002 C 
ATOM     19  C   UNL     1       7.658  -9.577  25.233  0.00  0.00    +0.058 C 
ATOM     20  N   UNL     1       7.605  -9.552  26.652  0.00  0.00    -0.299 N 
ATOM     21  C   UNL     1       6.291  -9.290  27.243  0.00  0.00    +0.131 C 
ATOM     22  C   UNL     1       6.672 -10.107  28.404  0.00  0.00    +0.053 C 
ATOM     23  C   UNL     1       8.083  -9.634  28.019  0.00  0.00    +0.094 C 
ENDBRANCH  14  16
BRANCH  11  24
ATOM     24  N   UNL     1       4.731  -4.345  28.788  0.00  0.00    +0.072 NA
ATOM     25  O   UNL     1       5.272  -3.726  27.842  0.00  0.00    -0.077 OA
ENDBRANCH  11  24
ENDBRANCH   1  11
BRANCH   1  26
ATOM     26  C   UNL     1       1.743  -4.461  27.551  0.00  0.00    +0.299 C 
BRANCH  26  27
ATOM     27  N   UNL     1       0.690  -3.591  27.932  0.00  0.00    -0.185 N 
ATOM     28  N   UNL     1      -0.422  -3.396  27.106  0.00  0.00    -0.181 NA
ATOM     29  C   UNL     1      -1.585  -3.229  27.597  0.00  0.00    +0.091 C 
ATOM     30  C   UNL     1      -1.792  -3.242  29.056  0.00  0.00    +0.050 C 
ATOM     31  C   UNL     1      -0.598  -2.970  29.894  0.00  0.00    +0.030 C 
ATOM     32  C   UNL     1       0.658  -2.760  29.135  0.00  0.00    +0.117 C 
ENDBRANCH  26  27
BRANCH  26  33
ATOM     33  O   UNL     1       2.719  -3.628  26.867  0.00  0.00    -0.447 OA
BRANCH  33  34
ATOM     34  C   UNL     1       2.432  -2.576  26.049  0.00  0.00    +0.142 C 
ATOM     35  C   UNL     1       2.314  -1.280  26.524  0.00  0.00    +0.037 C 
ATOM     36  C   UNL     1       2.016  -0.288  25.602  0.00  0.00    +0.003 C 
ATOM     37  C   UNL     1       1.838  -0.536  24.259  0.00  0.00    +0.000 C 
ATOM     38  C   UNL     1       1.958  -1.815  23.814  0.00  0.00    +0.003 C 
ATOM     39  C   UNL     1       2.251  -2.830  24.685  0.00  0.00    +0.037 C 
ENDBRANCH  33  34
ENDBRANCH  26  33
BRANCH  26  40
ATOM     40  C   UNL     1       1.294  -5.383  26.427  0.00  0.00    +0.141 C 
BRANCH  40  41
ATOM     41  C   UNL     1       0.467  -6.517  26.824  0.00  0.00    +0.125 C 
ATOM     42  C   UNL     1       0.834  -7.772  26.481  0.00  0.00    +0.027 C 
ATOM     43  F   UNL     1      -0.671  -6.384  27.520  0.00  0.00    -0.209 F 
ENDBRANCH  40  41
ENDBRANCH  26  40
ENDBRANCH   1  26
TORSDOF 11
REMARK  Name = =
REMARK  11 active torsions:
REMARK  status: ('A' for Active; 'I' for Inactive)
REMARK    1  A    between atoms: N_1  and  C_2
REMARK    2  A    between atoms: N_1  and  N_9
REMARK    3  A    between atoms: N_1  and  C_24
REMARK    4  A    between atoms: C_3  and  N_8
REMARK    5  A    between atoms: N_9  and  N_22
REMARK    6  A    between atoms: N_12  and  S_13
REMARK    7  A    between atoms: C_24  and  N_25
REMARK    8  A    between atoms: C_24  and  O_31
REMARK    9  A    between atoms: C_24  and  C_38
REMARK   10  A    between atoms: O_31  and  C_32
REMARK   11  A    between atoms: C_38  and  C_39
REMARK                            x       y       z     vdW  Elec       q    Type
REMARK                         _______ _______ _______ _____ _____    ______ ____
ROOT
ATOM      1  H   UNK     1       4.072 -10.068  25.802  0.00  0.00    +0.000 HD
ENDROOT
TORSDOF 0
