REMARK  Name = =
REMARK  0 active torsions:
REMARK  status: ('A' for Active; 'I' for Inactive)
REMARK                            x       y       z     vdW  Elec       q    Type
REMARK                         _______ _______ _______ _____ _____    ______ ____
ROOT
ATOM      1  C   UNL     1      -2.749  -4.319  30.480  0.00  0.00    +0.008 C 
ATOM      2  C   UNL     1      -2.293  -3.631  29.250  0.00  0.00    +0.002 C 
ATOM      3  C   UNL     1      -1.277  -4.331  28.444  0.00  0.00    +0.008 C 
ATOM      4  C   UNL     1      -0.558  -3.502  27.450  0.00  0.00    +0.040 C 
ATOM      5  C   UNL     1       0.656  -4.046  26.893  0.00  0.00    -0.019 C 
ATOM      6  C   UNL     1       1.706  -3.298  26.634  0.00  0.00    +0.038 C 
ATOM      7  C   UNL     1       1.711  -1.860  26.894  0.00  0.00    +0.195 C 
ATOM      8  O   UNL     1       2.723  -1.139  26.644  0.00  0.00    -0.287 OA
ATOM      9  C   UNL     1       0.491  -1.305  27.457  0.00  0.00    +0.034 C 
ATOM     10  C   UNL     1      -0.528  -2.085  27.699  0.00  0.00    -0.037 C 
ATOM     11  C   UNL     1      -1.765  -1.435  28.295  0.00  0.00    +0.022 C 
ATOM     12  C   UNL     1      -1.993  -2.194  29.589  0.00  0.00    +0.004 C 
ATOM     13  C   UNL     1      -0.350  -5.247  29.152  0.00  0.00    +0.001 C 
ATOM     14  C   UNL     1      -0.344  -5.018  30.622  0.00  0.00    +0.004 C 
ATOM     15  C   UNL     1      -1.726  -5.098  31.216  0.00  0.00    +0.022 C 
ATOM     16  C   UNL     1      -2.240  -6.491  31.362  0.00  0.00    -0.031 C 
ATOM     17  C   UNL     1      -3.653  -6.511  30.855  0.00  0.00    -0.031 C 
ATOM     18  C   UNL     1      -3.977  -5.161  30.310  0.00  0.00    +0.026 C 
ENDROOT
TORSDOF 0
