REMARK  Name = =
REMARK  1 active torsions:
REMARK  status: ('A' for Active; 'I' for Inactive)
REMARK    1  A    between atoms: C_18  and  S_19
REMARK                            x       y       z     vdW  Elec       q    Type
REMARK                         _______ _______ _______ _____ _____    ______ ____
ROOT
ATOM      1  C   UNL     1      -1.298  -6.112  30.956  0.00  0.00    +0.022 C 
ATOM      2  C   UNL     1      -0.745  -5.329  29.828  0.00  0.00    +0.003 C 
ATOM      3  C   UNL     1      -0.621  -6.062  28.538  0.00  0.00    +0.008 C 
ATOM      4  C   UNL     1       0.796  -6.494  28.281  0.00  0.00    +0.040 C 
ATOM      5  C   UNL     1       0.982  -7.378  27.141  0.00  0.00    -0.019 C 
ATOM      6  C   UNL     1       1.760  -7.128  26.088  0.00  0.00    +0.038 C 
ATOM      7  C   UNL     1       2.487  -5.889  26.053  0.00  0.00    +0.195 C 
ATOM      8  O   UNL     1       3.225  -5.659  25.048  0.00  0.00    -0.287 OA
ATOM      9  C   UNL     1       2.348  -4.971  27.150  0.00  0.00    +0.034 C 
ATOM     10  C   UNL     1       1.574  -5.233  28.184  0.00  0.00    -0.037 C 
ATOM     11  C   UNL     1       1.471  -4.262  29.271  0.00  0.00    +0.022 C 
ATOM     12  C   UNL     1       0.402  -4.516  30.261  0.00  0.00    +0.004 C 
ATOM     13  C   UNL     1      -1.534  -7.254  28.448  0.00  0.00    +0.001 C 
ATOM     14  C   UNL     1      -1.141  -8.203  29.528  0.00  0.00    +0.000 C 
ATOM     15  C   UNL     1      -1.348  -7.569  30.850  0.00  0.00    +0.002 C 
ATOM     16  C   UNL     1      -2.644  -8.035  31.481  0.00  0.00    +0.002 C 
ATOM     17  C   UNL     1      -3.557  -6.831  31.491  0.00  0.00    +0.023 C 
ATOM     18  C   UNL     1      -2.600  -5.666  31.490  0.00  0.00    +0.125 C 
ENDROOT
BRANCH  18  19
ATOM     19  S   UNL     1      -3.340  -4.325  30.639  0.00  0.00    -0.032 S 
ATOM     20  O   UNL     1      -2.423  -3.110  30.668  0.00  0.00    -0.176 OA
ATOM     21  O   UNL     1      -3.787  -4.649  29.262  0.00  0.00    -0.176 OA
ATOM     22  H   UNL     1      -4.486  -4.031  31.310  0.00  0.00    +0.210 HD
ENDBRANCH  18  19
TORSDOF 1
