REMARK  Name = =
REMARK  3 active torsions:
REMARK  status: ('A' for Active; 'I' for Inactive)
REMARK    1  A    between atoms: C_11  and  N_22
REMARK    2  A    between atoms: C_18  and  S_19
REMARK    3  A    between atoms: N_22  and  N_23
REMARK                            x       y       z     vdW  Elec       q    Type
REMARK                         _______ _______ _______ _____ _____    ______ ____
ROOT
ATOM      1  C   UNL     1      -2.380  -6.159  30.157  0.00  0.00    +0.022 C 
ATOM      2  C   UNL     1      -1.133  -5.700  29.467  0.00  0.00    +0.004 C 
ATOM      3  C   UNL     1      -0.441  -6.768  28.696  0.00  0.00    +0.008 C 
ATOM      4  C   UNL     1       0.749  -6.231  27.999  0.00  0.00    +0.042 C 
ATOM      5  C   UNL     1       1.995  -6.970  28.134  0.00  0.00    -0.019 C 
ATOM      6  C   UNL     1       3.179  -6.412  28.324  0.00  0.00    +0.038 C 
ATOM      7  C   UNL     1       3.285  -4.961  28.411  0.00  0.00    +0.195 C 
ATOM      8  O   UNL     1       4.405  -4.418  28.590  0.00  0.00    -0.287 OA
ATOM      9  C   UNL     1       2.049  -4.199  28.281  0.00  0.00    +0.035 C 
ATOM     10  C   UNL     1       0.889  -4.788  28.093  0.00  0.00    -0.022 C 
ATOM     11  C   UNL     1      -0.300  -3.872  27.994  0.00  0.00    +0.087 C 
ATOM     12  C   UNL     1      -1.543  -4.603  28.473  0.00  0.00    +0.021 C 
ATOM     13  C   UNL     1      -0.188  -7.932  29.586  0.00  0.00    +0.001 C 
ATOM     14  C   UNL     1      -1.441  -8.497  30.147  0.00  0.00    +0.000 C 
ATOM     15  C   UNL     1      -2.651  -7.620  30.035  0.00  0.00    +0.002 C 
ATOM     16  C   UNL     1      -3.595  -7.866  31.208  0.00  0.00    +0.002 C 
ATOM     17  C   UNL     1      -3.094  -6.956  32.322  0.00  0.00    +0.023 C 
ATOM     18  C   UNL     1      -2.406  -5.814  31.624  0.00  0.00    +0.125 C 
ENDROOT
BRANCH  18  19
ATOM     19  S   UNL     1      -3.273  -4.281  31.806  0.00  0.00    -0.032 S 
ATOM     20  O   UNL     1      -4.292  -4.115  30.716  0.00  0.00    -0.176 OA
ATOM     21  O   UNL     1      -3.995  -4.277  33.120  0.00  0.00    -0.176 OA
ATOM     22  H   UNL     1      -2.369  -3.267  31.742  0.00  0.00    +0.210 HD
ENDBRANCH  18  19
BRANCH  11  23
ATOM     23  N   UNL     1      -0.524  -3.478  26.622  0.00  0.00    -0.246 NA
ATOM     24  H   UNL     1      -0.764  -4.303  26.072  0.00  0.00    +0.141 HD
BRANCH  23  25
ATOM     25  N   UNL     1      -1.567  -2.550  26.538  0.00  0.00    -0.270 NA
ATOM     26  H   UNL     1      -1.331  -1.723  27.087  0.00  0.00    +0.137 HD
ATOM     27  H   UNL     1      -2.423  -2.967  26.902  0.00  0.00    +0.137 HD
ENDBRANCH  23  25
ENDBRANCH  11  23
TORSDOF 3
