REMARK  Name = =
REMARK  3 active torsions:
REMARK  status: ('A' for Active; 'I' for Inactive)
REMARK    1  A    between atoms: C_12  and  N_23
REMARK    2  A    between atoms: C_19  and  S_20
REMARK    3  A    between atoms: N_23  and  N_24
REMARK                            x       y       z     vdW  Elec       q    Type
REMARK                         _______ _______ _______ _____ _____    ______ ____
ROOT
ATOM      1  I   UNL     1      -0.797  -7.643  33.181  0.00  0.00    -0.074 I 
ATOM      2  C   UNL     1      -2.113  -6.574  31.909  0.00  0.00    +0.065 C 
ATOM      3  C   UNL     1      -1.546  -6.266  30.577  0.00  0.00    +0.013 C 
ATOM      4  C   UNL     1      -1.405  -7.496  29.759  0.00  0.00    +0.009 C 
ATOM      5  C   UNL     1       0.044  -7.800  29.400  0.00  0.00    +0.042 C 
ATOM      6  C   UNL     1       0.113  -9.038  28.629  0.00  0.00    -0.019 C 
ATOM      7  C   UNL     1       0.581  -9.158  27.397  0.00  0.00    +0.038 C 
ATOM      8  C   UNL     1       1.073  -7.952  26.745  0.00  0.00    +0.195 C 
ATOM      9  O   UNL     1       1.522  -8.038  25.579  0.00  0.00    -0.287 OA
ATOM     10  C   UNL     1       1.021  -6.697  27.483  0.00  0.00    +0.035 C 
ATOM     11  C   UNL     1       0.552  -6.599  28.707  0.00  0.00    -0.022 C 
ATOM     12  C   UNL     1       0.500  -5.316  29.454  0.00  0.00    +0.087 C 
ATOM     13  C   UNL     1      -0.351  -5.391  30.674  0.00  0.00    +0.022 C 
ATOM     14  C   UNL     1      -2.003  -8.733  30.319  0.00  0.00    +0.001 C 
ATOM     15  C   UNL     1      -3.311  -8.585  31.012  0.00  0.00    +0.001 C 
ATOM     16  C   UNL     1      -3.427  -7.297  31.699  0.00  0.00    +0.011 C 
ATOM     17  C   UNL     1      -4.031  -7.274  33.047  0.00  0.00    +0.003 C 
ATOM     18  C   UNL     1      -3.394  -6.091  33.779  0.00  0.00    +0.024 C 
ATOM     19  C   UNL     1      -2.620  -5.371  32.677  0.00  0.00    +0.134 C 
ENDROOT
BRANCH  19  20
ATOM     20  S   UNL     1      -3.788  -4.489  31.687  0.00  0.00    -0.032 S 
ATOM     21  O   UNL     1      -4.370  -5.442  30.661  0.00  0.00    -0.176 OA
ATOM     22  O   UNL     1      -4.927  -4.073  32.584  0.00  0.00    -0.176 OA
ATOM     23  H   UNL     1      -3.190  -3.424  31.089  0.00  0.00    +0.210 HD
ENDBRANCH  19  20
BRANCH  12  24
ATOM     24  N   UNL     1       1.856  -4.930  29.777  0.00  0.00    -0.246 NA
ATOM     25  H   UNL     1       1.888  -3.927  29.961  0.00  0.00    +0.141 HD
BRANCH  24  26
ATOM     26  N   UNL     1       2.286  -5.624  30.910  0.00  0.00    -0.270 NA
ATOM     27  H   UNL     1       2.254  -6.627  30.727  0.00  0.00    +0.137 HD
ATOM     28  H   UNL     1       1.676  -5.402  31.697  0.00  0.00    +0.137 HD
ENDBRANCH  24  26
ENDBRANCH  12  24
TORSDOF 3
