REMARK  Name = =
REMARK  4 active torsions:
REMARK  status: ('A' for Active; 'I' for Inactive)
REMARK    1  A    between atoms: C_11  and  N_28
REMARK    2  A    between atoms: C_18  and  S_19
REMARK    3  A    between atoms: C_23  and  C_25
REMARK    4  A    between atoms: N_28  and  N_29
REMARK                            x       y       z     vdW  Elec       q    Type
REMARK                         _______ _______ _______ _____ _____    ______ ____
ROOT
ATOM      1  C   UNL     1      -1.633  -7.253  31.567  0.00  0.00    +0.022 C 
ATOM      2  C   UNL     1      -0.885  -7.127  30.278  0.00  0.00    +0.004 C 
ATOM      3  C   UNL     1      -1.564  -7.795  29.143  0.00  0.00    +0.008 C 
ATOM      4  C   UNL     1      -0.764  -7.658  27.863  0.00  0.00    +0.042 C 
ATOM      5  C   UNL     1      -1.351  -8.431  26.765  0.00  0.00    -0.019 C 
ATOM      6  C   UNL     1      -0.672  -9.318  26.057  0.00  0.00    +0.038 C 
ATOM      7  C   UNL     1       0.742  -9.558  26.366  0.00  0.00    +0.195 C 
ATOM      8  O   UNL     1       1.384 -10.401  25.692  0.00  0.00    -0.287 OA
ATOM      9  C   UNL     1       1.362  -8.795  27.462  0.00  0.00    +0.035 C 
ATOM     10  C   UNL     1       0.656  -7.930  28.134  0.00  0.00    -0.022 C 
ATOM     11  C   UNL     1       1.294  -7.165  29.228  0.00  0.00    +0.087 C 
ATOM     12  C   UNL     1       0.552  -7.563  30.494  0.00  0.00    +0.021 C 
ATOM     13  C   UNL     1      -1.800  -9.278  29.447  0.00  0.00    +0.001 C 
ATOM     14  C   UNL     1      -2.721  -9.314  30.650  0.00  0.00    +0.000 C 
ATOM     15  C   UNL     1      -1.950  -8.734  31.812  0.00  0.00    +0.002 C 
ATOM     16  C   UNL     1      -2.943  -8.609  32.971  0.00  0.00    +0.002 C 
ATOM     17  C   UNL     1      -3.864  -7.529  32.438  0.00  0.00    +0.023 C 
ATOM     18  C   UNL     1      -3.000  -6.659  31.530  0.00  0.00    +0.125 C 
ENDROOT
BRANCH  18  19
ATOM     19  S   UNL     1      -3.091  -5.007  32.113  0.00  0.00    -0.032 S 
ATOM     20  O   UNL     1      -4.515  -4.768  32.600  0.00  0.00    -0.176 OA
ATOM     21  O   UNL     1      -2.802  -3.982  31.087  0.00  0.00    -0.176 OA
ATOM     22  H   UNL     1      -2.147  -4.881  33.084  0.00  0.00    +0.210 HD
ENDBRANCH  18  19
BRANCH  11  23
ATOM     23  N   UNL     1       2.703  -7.354  29.291  0.00  0.00    -0.246 NA
ATOM     24  H   UNL     1       2.923  -8.343  29.172  0.00  0.00    +0.141 HD
BRANCH  23  25
ATOM     25  N   UNL     1       3.296  -6.613  28.268  0.00  0.00    -0.270 NA
ATOM     26  H   UNL     1       3.074  -5.625  28.391  0.00  0.00    +0.137 HD
ATOM     27  H   UNL     1       2.940  -6.932  27.367  0.00  0.00    +0.137 HD
ENDBRANCH  23  25
ENDBRANCH  11  23
TORSDOF 3
REMARK  Name = =
REMARK  4 active torsions:
REMARK  status: ('A' for Active; 'I' for Inactive)
REMARK    1  A    between atoms: C_11  and  N_28
REMARK    2  A    between atoms: C_18  and  S_19
REMARK    3  A    between atoms: C_23  and  C_25
REMARK    4  A    between atoms: N_28  and  N_29
REMARK                            x       y       z     vdW  Elec       q    Type
REMARK                         _______ _______ _______ _____ _____    ______ ____
ROOT
ATOM      1  I   UNL     1      -0.491  -6.654  33.244  0.00  0.00    -0.107 I 
ATOM      2  H   UNL     1       1.070  -6.654  33.244  0.00  0.00    +0.107 HD
ENDROOT
TORSDOF 0
REMARK  Name = =
REMARK  4 active torsions:
REMARK  status: ('A' for Active; 'I' for Inactive)
REMARK    1  A    between atoms: C_11  and  N_28
REMARK    2  A    between atoms: C_18  and  S_19
REMARK    3  A    between atoms: C_23  and  C_25
REMARK    4  A    between atoms: N_28  and  N_29
REMARK                            x       y       z     vdW  Elec       q    Type
REMARK                         _______ _______ _______ _____ _____    ______ ____
ROOT
ATOM      1  C   UNL     1       2.361  -5.555  33.324  0.00  0.00    +0.285 C 
ATOM      2  O   UNL     1       2.492  -6.338  34.298  0.00  0.00    -0.267 OA
ATOM      3  N   UNL     1       3.446  -4.700  33.004  0.00  0.00    -0.323 N 
ATOM      4  H   UNL     1       3.374  -4.075  32.246  0.00  0.00    +0.145 HD
ATOM      5  H   UNL     1       4.272  -4.731  33.539  0.00  0.00    +0.145 HD
ENDROOT
BRANCH   1   6
ATOM      6  C   UNL     1       1.132  -5.539  32.561  0.00  0.00    +0.291 C 
ATOM      7  O   UNL     1       1.102  -4.843  31.509  0.00  0.00    -0.278 OA
ENDBRANCH   1   6
TORSDOF 1
