MODEL 1
REMARK VINA RESULT:   -10.098      0.000      0.000
REMARK INTER + INTRA:         -16.623
REMARK INTER:                 -14.231
REMARK INTRA:                  -2.392
REMARK UNBOUND:                -2.392
REMARK  Name = =
REMARK  8 active torsions:
REMARK  status: ('A' for Active; 'I' for Inactive)
REMARK    1  A    between atoms: C_1  and  N_8
REMARK    2  A    between atoms: C_2  and  N_24
REMARK    3  A    between atoms: C_6  and  C_25
REMARK    4  A    between atoms: C_11  and  C_16
REMARK    5  A    between atoms: C_19  and  O_23
REMARK    6  A    between atoms: C_25  and  C_27
REMARK    7  A    between atoms: C_30  and  C_33
REMARK    8  A    between atoms: C_36  and  C_39
REMARK                            x       y       z     vdW  Elec       q    Type
REMARK                         _______ _______ _______ _____ _____    ______ ____
ROOT
ATOM      1  C   UNL     1       0.849  -4.121  29.385  0.00  0.00    +0.113 A 
ATOM      2  C   UNL     1      -0.018  -3.064  29.557  0.00  0.00    +0.144 A 
ATOM      3  N   UNL     1       0.163  -1.950  28.812  0.00  0.00    -0.198 NA
ATOM      4  C   UNL     1       1.152  -1.828  27.906  0.00  0.00    +0.215 A 
ATOM      5  N   UNL     1       1.992  -2.859  27.737  0.00  0.00    -0.209 NA
ATOM      6  C   UNL     1       1.852  -4.019  28.477  0.00  0.00    +0.140 A 
ATOM      7  N   UNL     1       1.351  -0.605  27.159  0.00  0.00    -0.327 N 
ATOM      8  H   UNL     1       0.736   0.154  27.282  0.00  0.00    +0.145 HD
ATOM      9  H   UNL     1       2.103  -0.531  26.527  0.00  0.00    +0.145 HD
ENDROOT
BRANCH   1  10
ATOM     10  N   UNL     1       0.683  -5.275  30.238  0.00  0.00    -0.204 N 
ATOM     11  C   UNL     1      -0.238  -6.297  30.041  0.00  0.00    +0.239 C 
ATOM     12  O   UNL     1      -1.013  -6.274  29.085  0.00  0.00    -0.274 OA
ATOM     13  C   UNL     1      -0.313  -7.458  31.000  0.00  0.00    +0.102 C 
ATOM     14  C   UNL     1       0.926  -7.597  31.798  0.00  0.00    +0.023 C 
ATOM     15  C   UNL     1       1.731  -6.455  32.214  0.00  0.00    +0.087 C 
ATOM     16  C   UNL     1       1.571  -5.290  31.366  0.00  0.00    +0.235 C 
ATOM     17  O   UNL     1       2.244  -4.236  31.625  0.00  0.00    -0.274 OA
BRANCH  13  18
ATOM     18  C   UNL     1      -1.495  -7.264  31.858  0.00  0.00    +0.014 C 
ATOM     19  C   UNL     1      -2.730  -7.792  31.452  0.00  0.00    +0.140 C 
ATOM     20  C   UNL     1      -3.868  -7.550  32.198  0.00  0.00    +0.066 C 
ATOM     21  C   UNL     1      -3.858  -6.794  33.358  0.00  0.00    +0.136 C 
ATOM     22  C   UNL     1      -2.663  -6.285  33.743  0.00  0.00    +0.036 C 
ATOM     23  C   UNL     1      -1.486  -6.512  33.008  0.00  0.00    +0.002 C 
ATOM     24  F   UNL     1      -2.771  -8.555  30.347  0.00  0.00    -0.204 F 
BRANCH  21  25
ATOM     25  O   UNL     1      -5.060  -6.591  34.064  0.00  0.00    -0.505 OA
ATOM     26  H   UNL     1      -5.456  -5.742  34.080  0.00  0.00    +0.292 HD
ENDBRANCH  21  25
ENDBRANCH  13  18
ENDBRANCH   1  10
BRANCH   2  27
ATOM     27  N   UNL     1      -1.024  -3.208  30.528  0.00  0.00    -0.342 N 
ATOM     28  H   UNL     1      -1.520  -4.056  30.601  0.00  0.00    +0.144 HD
ATOM     29  H   UNL     1      -1.233  -2.462  31.135  0.00  0.00    +0.144 HD
ENDBRANCH   2  27
BRANCH   6  30
ATOM     30  C   UNL     1       2.820  -5.085  28.337  0.00  0.00    +0.214 C 
ATOM     31  O   UNL     1       4.010  -4.917  28.653  0.00  0.00    -0.285 OA
BRANCH  30  32
ATOM     32  C   UNL     1       2.469  -6.423  27.809  0.00  0.00    +0.041 C 
ATOM     33  C   UNL     1       2.905  -7.596  28.386  0.00  0.00    +0.003 C 
ATOM     34  C   UNL     1       2.507  -8.822  27.935  0.00  0.00    +0.000 C 
ATOM     35  C   UNL     1       1.620  -8.937  26.842  0.00  0.00    +0.000 C 
ATOM     36  C   UNL     1       1.193  -7.782  26.271  0.00  0.00    +0.000 C 
ATOM     37  C   UNL     1       1.604  -6.521  26.737  0.00  0.00    +0.003 C 
BRANCH  35  38
ATOM     38  C   UNL     1       1.202 -10.294  26.463  0.00  0.00    +0.000 C 
ATOM     39  C   UNL     1       0.249 -10.545  25.509  0.00  0.00    +0.000 C 
ATOM     40  C   UNL     1      -0.016 -11.812  25.034  0.00  0.00    +0.000 C 
ATOM     41  C   UNL     1       0.688 -12.905  25.509  0.00  0.00    +0.000 C 
ATOM     42  C   UNL     1       1.644 -12.676  26.468  0.00  0.00    +0.000 C 
ATOM     43  C   UNL     1       1.917 -11.385  26.959  0.00  0.00    +0.000 C 
BRANCH  41  44
ATOM     44  C   UNL     1       0.410 -14.224  24.918  0.00  0.00    +0.000 C 
ATOM     45  C   UNL     1      -0.752 -14.908  25.196  0.00  0.00    +0.000 C 
ATOM     46  C   UNL     1      -1.087 -16.117  24.550  0.00  0.00    +0.000 C 
ATOM     47  C   UNL     1      -0.233 -16.633  23.617  0.00  0.00    +0.000 C 
ATOM     48  C   UNL     1       0.934 -15.974  23.326  0.00  0.00    +0.000 C 
ATOM     49  C   UNL     1       1.256 -14.788  23.965  0.00  0.00    +0.000 C 
ENDBRANCH  41  44
ENDBRANCH  35  38
ENDBRANCH  30  32
ENDBRANCH   6  30
TORSDOF 8
ENDMDL
