REMARK  Name = =
REMARK  8 active torsions:
REMARK  status: ('A' for Active; 'I' for Inactive)
REMARK    1  A    between atoms: C_1  and  N_8
REMARK    2  A    between atoms: C_2  and  N_24
REMARK    3  A    between atoms: C_6  and  C_25
REMARK    4  A    between atoms: C_11  and  C_16
REMARK    5  A    between atoms: C_19  and  O_23
REMARK    6  A    between atoms: C_25  and  C_27
REMARK    7  A    between atoms: C_30  and  C_33
REMARK    8  A    between atoms: C_36  and  C_39
REMARK                            x       y       z     vdW  Elec       q    Type
REMARK                         _______ _______ _______ _____ _____    ______ ____
ROOT
ATOM      1  C   UNL     1       0.222  -3.689  28.607  0.00  0.00    +0.113 A 
ATOM      2  C   UNL     1      -0.282  -4.137  29.808  0.00  0.00    +0.144 A 
ATOM      3  N   UNL     1      -1.385  -3.537  30.311  0.00  0.00    -0.198 NA
ATOM      4  C   UNL     1      -2.014  -2.522  29.689  0.00  0.00    +0.215 A 
ATOM      5  N   UNL     1      -1.524  -2.091  28.518  0.00  0.00    -0.209 NA
ATOM      6  C   UNL     1      -0.397  -2.668  27.963  0.00  0.00    +0.140 A 
ATOM      7  N   UNL     1      -3.163  -1.866  30.276  0.00  0.00    -0.327 N 
ATOM      8  H   UNL     1      -3.524  -2.181  31.136  0.00  0.00    +0.145 HD
ATOM      9  H   UNL     1      -3.584  -1.104  29.815  0.00  0.00    +0.145 HD
ENDROOT
BRANCH   1  10
ATOM     10  N   UNL     1       1.440  -4.295  28.119  0.00  0.00    -0.204 N 
ATOM     11  C   UNL     1       2.725  -3.815  28.344  0.00  0.00    +0.239 C 
ATOM     12  O   UNL     1       2.911  -2.789  28.997  0.00  0.00    -0.274 OA
ATOM     13  C   UNL     1       3.923  -4.541  27.786  0.00  0.00    +0.102 C 
ATOM     14  C   UNL     1       3.608  -5.945  27.440  0.00  0.00    +0.023 C 
ATOM     15  C   UNL     1       2.301  -6.364  26.947  0.00  0.00    +0.087 C 
ATOM     16  C   UNL     1       1.221  -5.479  27.337  0.00  0.00    +0.235 C 
ATOM     17  O   UNL     1       0.028  -5.759  26.977  0.00  0.00    -0.274 OA
BRANCH  13  18
ATOM     18  C   UNL     1       4.408  -3.786  26.617  0.00  0.00    +0.014 C 
ATOM     19  C   UNL     1       5.477  -2.892  26.774  0.00  0.00    +0.140 C 
ATOM     20  C   UNL     1       5.893  -2.112  25.711  0.00  0.00    +0.066 C 
ATOM     21  C   UNL     1       5.296  -2.166  24.463  0.00  0.00    +0.136 C 
ATOM     22  C   UNL     1       4.263  -3.030  24.318  0.00  0.00    +0.036 C 
ATOM     23  C   UNL     1       3.815  -3.838  25.378  0.00  0.00    +0.002 C 
ATOM     24  F   UNL     1       6.098  -2.835  27.964  0.00  0.00    -0.204 F 
BRANCH  21  25
ATOM     25  O   UNL     1       5.776  -1.339  23.428  0.00  0.00    -0.505 OA
ATOM     26  H   UNL     1       6.495  -0.760  23.587  0.00  0.00    +0.292 HD
ENDBRANCH  21  25
ENDBRANCH  13  18
ENDBRANCH   1  10
BRANCH   2  27
ATOM     27  N   UNL     1       0.410  -5.179  30.449  0.00  0.00    -0.342 N 
ATOM     28  H   UNL     1       1.208  -5.573  30.027  0.00  0.00    +0.144 HD
ATOM     29  H   UNL     1       0.097  -5.515  31.320  0.00  0.00    +0.144 HD
ENDBRANCH   2  27
BRANCH   6  30
ATOM     30  C   UNL     1       0.162  -2.131  26.741  0.00  0.00    +0.214 C 
ATOM     31  O   UNL     1       1.384  -1.944  26.623  0.00  0.00    -0.285 OA
BRANCH  30  32
ATOM     32  C   UNL     1      -0.670  -1.764  25.572  0.00  0.00    +0.041 C 
ATOM     33  C   UNL     1      -0.135  -1.347  24.372  0.00  0.00    +0.003 C 
ATOM     34  C   UNL     1      -0.912  -1.089  23.279  0.00  0.00    +0.000 C 
ATOM     35  C   UNL     1      -2.315  -1.242  23.337  0.00  0.00    +0.000 C 
ATOM     36  C   UNL     1      -2.842  -1.648  24.520  0.00  0.00    +0.000 C 
ATOM     37  C   UNL     1      -2.041  -1.913  25.644  0.00  0.00    +0.003 C 
BRANCH  35  38
ATOM     38  C   UNL     1      -3.064  -0.997  22.097  0.00  0.00    +0.000 C 
ATOM     39  C   UNL     1      -3.744  -1.981  21.425  0.00  0.00    +0.000 C 
ATOM     40  C   UNL     1      -4.583  -1.717  20.364  0.00  0.00    +0.000 C 
ATOM     41  C   UNL     1      -4.780  -0.418  19.926  0.00  0.00    +0.000 C 
ATOM     42  C   UNL     1      -4.105   0.582  20.582  0.00  0.00    +0.000 C 
ATOM     43  C   UNL     1      -3.244   0.318  21.665  0.00  0.00    +0.000 C 
BRANCH  41  44
ATOM     44  C   UNL     1      -5.738  -0.189  18.833  0.00  0.00    +0.000 C 
ATOM     45  C   UNL     1      -5.318   0.056  17.545  0.00  0.00    +0.000 C 
ATOM     46  C   UNL     1      -6.220   0.163  16.465  0.00  0.00    +0.000 C 
ATOM     47  C   UNL     1      -7.558   0.021  16.699  0.00  0.00    +0.000 C 
ATOM     48  C   UNL     1      -8.004  -0.218  17.974  0.00  0.00    +0.000 C 
ATOM     49  C   UNL     1      -7.112  -0.321  19.028  0.00  0.00    +0.000 C 
ENDBRANCH  41  44
ENDBRANCH  35  38
ENDBRANCH  30  32
ENDBRANCH   6  30
TORSDOF 8
