REMARK  Name = =
REMARK  6 active torsions:
REMARK  status: ('A' for Active; 'I' for Inactive)
REMARK    1  A    between atoms: P_1  and  O_2
REMARK    2  A    between atoms: P_1  and  O_5
REMARK    3  A    between atoms: P_1  and  C_6
REMARK    4  A    between atoms: O_2  and  O_4
REMARK    5  A    between atoms: C_6  and  O_8
REMARK    6  A    between atoms: O_8  and  C_9
REMARK                            x       y       z     vdW  Elec       q    Type
REMARK                         _______ _______ _______ _____ _____    ______ ____
ROOT
ATOM      1  C   UNL     1     -14.339 -42.950  26.757  0.00  0.00    +0.382 C 
ATOM      2  O   UNL     1     -15.408 -42.820  27.423  0.00  0.00    -0.241 OA
ENDROOT
BRANCH   1   3
ATOM      3  P   UNL     1     -12.839 -43.614  27.512  0.00  0.00    +0.233 P 
ATOM      4  H   UNL     1     -13.468 -44.769  27.980  0.00  0.00    +0.124 HD
BRANCH   3   5
ATOM      5  O   UNL     1     -12.314 -45.205  27.225  0.00  0.00    -0.348 OA
ATOM      6  H   UNL     1     -11.495 -45.369  27.718  0.00  0.00    +0.217 HD
ENDBRANCH   3   5
BRANCH   3   7
ATOM      7  O   UNL     1     -12.665 -42.149  27.864  0.00  0.00    -0.187 OA
BRANCH   7   8
ATOM      8  O   UNL     1     -11.705 -42.579  26.780  0.00  0.00    -0.245 OA
ATOM      9  H   UNL     1     -11.156 -41.824  26.516  0.00  0.00    +0.253 HD
ENDBRANCH   7   8
ENDBRANCH   3   7
ENDBRANCH   1   3
BRANCH   1  10
ATOM     10  O   UNL     1     -14.355 -42.571  25.447  0.00  0.00    -0.393 OA
BRANCH  10  11
ATOM     11  C   UNL     1     -15.469 -42.392  24.660  0.00  0.00    +0.285 C 
ATOM     12  S   UNL     1     -16.237 -43.369  23.423  0.00  0.00    -0.005 S 
ATOM     13  C   UNL     1     -17.626 -42.128  23.083  0.00  0.00    +0.162 C 
ATOM     14  N   UNL     1     -17.291 -41.305  23.873  0.00  0.00    -0.136 NA
ATOM     15  N   UNL     1     -16.344 -41.248  24.674  0.00  0.00    -0.103 NA
ENDBRANCH  10  11
ENDBRANCH   1  10
TORSDOF 6
REMARK  Name = =
REMARK  6 active torsions:
REMARK  status: ('A' for Active; 'I' for Inactive)
REMARK    1  A    between atoms: P_1  and  O_2
REMARK    2  A    between atoms: P_1  and  O_5
REMARK    3  A    between atoms: P_1  and  C_6
REMARK    4  A    between atoms: O_2  and  O_4
REMARK    5  A    between atoms: C_6  and  O_8
REMARK    6  A    between atoms: O_8  and  C_9
REMARK                            x       y       z     vdW  Elec       q    Type
REMARK                         _______ _______ _______ _____ _____    ______ ____
ROOT
ATOM      1  O   UNL     1     -13.151 -43.767  29.164  0.00  0.00    -0.286 OA
ATOM      2  C   UNL     1     -11.183 -44.689  30.266  0.00  0.00    +0.042 C 
ATOM      3  C   UNL     1     -12.164 -43.746  30.161  0.00  0.00    +0.199 C 
ATOM      4  C   UNL     1     -12.224 -42.696  31.070  0.00  0.00    +0.080 C 
ATOM      5  C   UNL     1     -11.303 -42.568  32.099  0.00  0.00    +0.152 C 
ATOM      6  C   UNL     1     -10.315 -43.523  32.199  0.00  0.00    +0.035 C 
ATOM      7  C   UNL     1     -10.270 -44.555  31.291  0.00  0.00    +0.006 C 
ATOM      8  C   UNL     1      -9.385 -43.425  33.212  0.00  0.00    +0.010 C 
ATOM      9  C   UNL     1      -9.492 -42.355  34.090  0.00  0.00    +0.082 C 
ATOM     10  C   UNL     1     -10.511 -41.432  33.932  0.00  0.00    +0.346 C 
ATOM     11  O   UNL     1     -10.592 -40.460  34.747  0.00  0.00    -0.244 OA
ATOM     12  O   UNL     1     -11.375 -41.566  32.952  0.00  0.00    -0.421 OA
ENDROOT
TORSDOF 0
