MODEL 1
REMARK VINA RESULT:    -8.284      0.000      0.000
REMARK INTER + INTRA:         -11.370
REMARK INTER:                  -9.979
REMARK INTRA:                  -1.391
REMARK UNBOUND:                -1.391
REMARK  Name = =
REMARK  5 active torsions:
REMARK  status: ('A' for Active; 'I' for Inactive)
REMARK    1  A    between atoms: C_1  and  C_21
REMARK    2  A    between atoms: C_7  and  O_40
REMARK    3  A    between atoms: C_15  and  O_39
REMARK    4  A    between atoms: C_18  and  O_38
REMARK    5  A    between atoms: C_23  and  C_31
REMARK                            x       y       z     vdW  Elec       q    Type
REMARK                         _______ _______ _______ _____ _____    ______ ____
ROOT
ATOM      1  C   UNL     1      59.419 163.229  42.261  0.00  0.00    +0.025 C 
ATOM      2  C   UNL     1      60.277 164.293  42.920  0.00  0.00    +0.005 C 
ATOM      3  C   UNL     1      60.396 165.534  42.119  0.00  0.00    +0.005 C 
ATOM      4  C   UNL     1      59.453 165.743  41.004  0.00  0.00    +0.026 C 
ATOM      5  C   UNL     1      58.163 165.074  41.231  0.00  0.00    -0.023 C 
ATOM      6  C   UNL     1      58.116 163.850  41.849  0.00  0.00    +0.007 C 
ATOM      7  C   UNL     1      56.889 163.268  42.049  0.00  0.00    +0.132 C 
ATOM      8  C   UNL     1      55.712 163.908  41.632  0.00  0.00    +0.075 C 
ATOM      9  C   UNL     1      55.752 165.135  41.013  0.00  0.00    +0.045 C 
ATOM     10  C   UNL     1      56.983 165.717  40.814  0.00  0.00    -0.001 C 
ATOM     11  C   UNL     1      54.509 165.808  40.572  0.00  0.00    +0.199 C 
ATOM     12  O   UNL     1      54.573 166.930  40.007  0.00  0.00    -0.286 OA
ATOM     13  C   UNL     1      53.208 165.191  40.783  0.00  0.00    +0.079 C 
ATOM     14  C   UNL     1      53.183 163.960  41.406  0.00  0.00    +0.079 C 
ATOM     15  C   UNL     1      51.948 163.380  41.603  0.00  0.00    +0.137 C 
ATOM     16  C   UNL     1      50.768 163.991  41.201  0.00  0.00    +0.040 C 
ATOM     17  C   UNL     1      50.799 165.219  40.579  0.00  0.00    +0.040 C 
ATOM     18  C   UNL     1      52.031 165.809  40.377  0.00  0.00    +0.137 C 
ATOM     19  C   UNL     1      54.407 163.295  41.841  0.00  0.00    +0.202 C 
ATOM     20  O   UNL     1      54.385 162.169  42.411  0.00  0.00    -0.286 OA
ENDROOT
BRANCH   1  21
ATOM     21  C   UNL     1      60.154 162.610  41.144  0.00  0.00    +0.004 C 
ATOM     22  C   UNL     1      59.276 161.904  40.128  0.00  0.00    +0.004 C 
ATOM     23  C   UNL     1      60.023 161.869  38.816  0.00  0.00    +0.040 C 
ATOM     24  C   UNL     1      60.097 160.500  38.220  0.00  0.00    +0.004 C 
ATOM     25  C   UNL     1      58.820 159.734  38.260  0.00  0.00    +0.000 C 
ATOM     26  C   UNL     1      57.978 159.943  39.468  0.00  0.00    +0.000 C 
ATOM     27  C   UNL     1      58.696 160.640  40.574  0.00  0.00    +0.000 C 
ATOM     28  C   UNL     1      59.410 159.774  41.513  0.00  0.00    +0.000 C 
ATOM     29  C   UNL     1      60.499 160.439  42.314  0.00  0.00    +0.000 C 
ATOM     30  C   UNL     1      61.162 161.561  41.558  0.00  0.00    +0.000 C 
BRANCH  23  31
ATOM     31  C   UNL     1      59.427 162.800  37.793  0.00  0.00    +0.169 C 
ATOM     32  C   UNL     1      59.182 162.029  36.521  0.00  0.00    +0.044 C 
ATOM     33  C   UNL     1      59.502 162.798  35.263  0.00  0.00    +0.015 C 
ATOM     34  C   UNL     1      59.045 164.226  35.419  0.00  0.00    +0.110 C 
ATOM     35  C   UNL     1      59.851 164.791  36.531  0.00  0.00    +0.317 C 
ATOM     36  O   UNL     1      60.200 165.983  36.494  0.00  0.00    -0.250 OA
ATOM     37  O   UNL     1      60.201 163.972  37.599  0.00  0.00    -0.452 OA
ENDBRANCH  23  31
ENDBRANCH   1  21
BRANCH  18  38
ATOM     38  O   UNL     1      52.089 167.058  39.747  0.00  0.00    -0.505 OA
ATOM     39  H   UNL     1      51.343 167.625  39.760  0.00  0.00    +0.292 HD
ENDBRANCH  18  38
BRANCH  15  40
ATOM     40  O   UNL     1      51.895 162.144  42.228  0.00  0.00    -0.505 OA
ATOM     41  H   UNL     1      51.094 161.659  42.242  0.00  0.00    +0.292 HD
ENDBRANCH  15  40
BRANCH   7  42
ATOM     42  O   UNL     1      56.770 162.042  42.668  0.00  0.00    -0.506 OA
ATOM     43  H   UNL     1      56.123 161.430  42.377  0.00  0.00    +0.292 HD
ENDBRANCH   7  42
TORSDOF 5
ENDMDL
