MODEL 1
REMARK VINA RESULT:    -9.901      0.000      0.000
REMARK INTER + INTRA:         -13.791
REMARK INTER:                 -14.242
REMARK INTRA:                   0.451
REMARK UNBOUND:                 0.451
REMARK  Name = =
REMARK  8 active torsions:
REMARK  status: ('A' for Active; 'I' for Inactive)
REMARK    1  A    between atoms: C_1  and  C_2
REMARK    2  A    between atoms: C_1  and  C_25
REMARK    3  A    between atoms: C_1  and  C_31
REMARK    4  A    between atoms: C_2  and  C_3
REMARK    5  A    between atoms: C_2  and  C_37
REMARK    6  A    between atoms: C_9  and  N_13
REMARK    7  A    between atoms: N_21  and  S_27
REMARK    8  A    between atoms: S_27  and  N_30
REMARK                            x       y       z     vdW  Elec       q    Type
REMARK                         _______ _______ _______ _____ _____    ______ ____
ROOT
ATOM      1  C   UNL     1       1.012  -4.503  30.258  0.00  0.00    +0.078 C 
ENDROOT
BRANCH   1   2
ATOM      2  C   UNL     1       0.080  -5.632  30.276  0.00  0.00    +0.149 C 
ATOM      3  N   UNL     1       0.496  -6.824  29.738  0.00  0.00    -0.146 NA
ATOM      4  N   UNL     1      -0.274  -7.896  29.700  0.00  0.00    -0.115 NA
ATOM      5  C   UNL     1      -1.521  -7.873  30.191  0.00  0.00    +0.108 C 
ATOM      6  C   UNL     1      -1.961  -6.682  30.737  0.00  0.00    +0.103 C 
ATOM      7  N   UNL     1      -1.164  -5.593  30.771  0.00  0.00    -0.194 NA
ATOM      8  C   UNL     1      -3.237  -6.623  31.249  0.00  0.00    +0.079 C 
ATOM      9  C   UNL     1      -4.087  -7.735  31.227  0.00  0.00    +0.017 C 
ATOM     10  C   UNL     1      -3.628  -8.931  30.673  0.00  0.00    +0.003 C 
ATOM     11  C   UNL     1      -2.353  -8.990  30.160  0.00  0.00    +0.020 C 
BRANCH   8  12
ATOM     12  N   UNL     1      -3.647  -5.376  31.794  0.00  0.00    -0.187 N 
ATOM     13  C   UNL     1      -3.535  -5.159  33.114  0.00  0.00    +0.318 C 
ATOM     14  O   UNL     1      -3.075  -6.031  33.897  0.00  0.00    -0.251 OA
ATOM     15  N   UNL     1      -3.915  -3.980  33.662  0.00  0.00    -0.266 N 
ATOM     16  C   UNL     1      -4.417  -2.994  32.898  0.00  0.00    +0.070 C 
ATOM     17  C   UNL     1      -4.551  -3.178  31.531  0.00  0.00    +0.075 C 
ATOM     18  C   UNL     1      -4.144  -4.408  31.026  0.00  0.00    +0.261 C 
ATOM     19  O   UNL     1      -4.247  -4.622  29.784  0.00  0.00    -0.269 OA
ATOM     20  H   UNL     1      -3.822  -3.843  34.632  0.00  0.00    +0.156 HD
ENDBRANCH   8  12
ENDBRANCH   1   2
BRANCH   1  21
ATOM     21  C   UNL     1       1.911  -4.471  31.378  0.00  0.00    +0.076 C 
ATOM     22  S   UNL     1       2.200  -5.930  32.157  0.00  0.00    -0.082 S 
ENDBRANCH   1  21
BRANCH   1  23
ATOM     23  C   UNL     1       1.106  -3.695  29.226  0.00  0.00    +0.087 C 
BRANCH  23  28
ATOM     24  N   UNL     1       3.377  -4.429  28.076  0.00  0.00    -0.080 N 
ATOM     25  C   UNL     1       3.711  -5.767  28.037  0.00  0.00    +0.327 C 
ATOM     26  O   UNL     1       4.846  -6.102  27.410  0.00  0.00    -0.251 OA
ATOM     27  N   UNL     1       3.099  -6.922  28.536  0.00  0.00    -0.312 N 
ATOM     28  C   UNL     1       2.393  -3.591  28.555  0.00  0.00    +0.252 C 
ATOM     29  O   UNL     1       2.666  -2.282  28.363  0.00  0.00    -0.273 OA
ATOM     30  H   UNL     1       2.249  -6.854  29.028  0.00  0.00    +0.147 HD
ATOM     31  H   UNL     1       3.518  -7.802  28.395  0.00  0.00    +0.147 HD
BRANCH  24  32
ATOM     32  S   UNL     1       4.706  -3.465  27.256  0.00  0.00    +0.119 S 
ATOM     33  O   UNL     1       5.960  -3.690  28.003  0.00  0.00    -0.138 OA
ATOM     34  O   UNL     1       4.702  -4.012  25.866  0.00  0.00    -0.138 OA
BRANCH  32  35
ATOM     35  N   UNL     1       4.237  -1.825  27.213  0.00  0.00    -0.190 NA
ATOM     36  H   UNL     1       4.988  -1.247  27.591  0.00  0.00    +0.146 HD
ATOM     37  H   UNL     1       3.395  -1.698  27.774  0.00  0.00    +0.146 HD
ENDBRANCH  32  35
ENDBRANCH  24  32
ENDBRANCH  23  28
BRANCH  23  38
ATOM     38  C   UNL     1      -0.052  -2.987  28.624  0.00  0.00    +0.009 C 
ATOM     39  C   UNL     1      -0.782  -3.625  27.491  0.00  0.00    +0.000 C 
ATOM     40  C   UNL     1      -1.256  -2.403  26.623  0.00  0.00    +0.000 C 
ATOM     41  C   UNL     1      -1.853  -1.374  27.514  0.00  0.00    +0.000 C 
ATOM     42  C   UNL     1      -2.199  -1.815  28.906  0.00  0.00    +0.000 C 
ATOM     43  C   UNL     1      -1.036  -2.446  29.598  0.00  0.00    +0.000 C 
ENDBRANCH  23  38
ENDBRANCH   1  23
TORSDOF 8
ENDMDL
