MODEL 1
REMARK VINA RESULT:    -9.899      0.000      0.000
REMARK INTER + INTRA:         -14.603
REMARK INTER:                 -12.792
REMARK INTRA:                  -1.811
REMARK UNBOUND:                -1.811
REMARK  Name = =
REMARK  5 active torsions:
REMARK  status: ('A' for Active; 'I' for Inactive)
REMARK    1  A    between atoms: C_1  and  C_26
REMARK    2  A    between atoms: C_8  and  C_30
REMARK    3  A    between atoms: C_9  and  C_40
REMARK    4  A    between atoms: C_15  and  C_28
REMARK    5  A    between atoms: C_40  and  C_42
REMARK                            x       y       z     vdW  Elec       q    Type
REMARK                         _______ _______ _______ _____ _____    ______ ____
ROOT
ATOM      1  C   UNL     1       2.267  -5.812  28.913  0.00  0.00    +0.019 C 
ATOM      2  C   UNL     1       1.556  -5.218  30.119  0.00  0.00    +0.004 C 
ATOM      3  C   UNL     1       2.516  -4.587  31.110  0.00  0.00    +0.000 C 
ATOM      4  C   UNL     1       2.114  -4.896  32.543  0.00  0.00    +0.000 C 
ATOM      5  C   UNL     1       2.340  -6.356  32.867  0.00  0.00    +0.000 C 
ATOM      6  C   UNL     1       1.961  -7.146  31.603  0.00  0.00    +0.000 C 
ATOM      7  C   UNL     1       0.902  -6.336  30.929  0.00  0.00    +0.001 C 
ATOM      8  C   UNL     1      -0.178  -7.038  30.240  0.00  0.00    +0.015 C 
ATOM      9  C   UNL     1       0.146  -7.187  28.765  0.00  0.00    +0.084 C 
ATOM     10  C   UNL     1       1.611  -7.105  28.648  0.00  0.00    -0.038 C 
ATOM     11  C   UNL     1       2.305  -8.162  28.312  0.00  0.00    -0.009 C 
ENDROOT
BRANCH   1  26
ATOM     12  C   UNL     1       2.904  -2.538  27.023  0.00  0.00    +0.000 C 
ATOM     13  C   UNL     1       1.948  -2.256  25.884  0.00  0.00    +0.000 C 
ATOM     14  C   UNL     1       1.898  -0.780  25.548  0.00  0.00    +0.007 C 
ATOM     15  C   UNL     1       2.404  -0.495  24.164  0.00  0.00    +0.058 C 
ATOM     16  C   UNL     1       3.537  -1.336  23.733  0.00  0.00    +0.150 C 
ATOM     17  O   UNL     1       3.346  -2.213  22.920  0.00  0.00    -0.296 OA
ATOM     18  C   UNL     1       4.891  -1.138  24.261  0.00  0.00    +0.065 C 
ATOM     19  C   UNL     1       5.908  -2.083  23.734  0.00  0.00    +0.012 C 
ATOM     20  C   UNL     1       6.357  -3.158  24.680  0.00  0.00    +0.048 C 
ATOM     21  C   UNL     1       5.446  -4.350  24.754  0.00  0.00    +0.208 C 
ATOM     22  O   UNL     1       5.592  -5.003  25.976  0.00  0.00    -0.448 OA
ATOM     23  C   UNL     1       4.662  -5.118  26.984  0.00  0.00    +0.317 C 
ATOM     24  O   UNL     1       5.077  -5.011  28.162  0.00  0.00    -0.250 OA
ATOM     25  C   UNL     1       3.265  -5.353  26.686  0.00  0.00    +0.110 C 
ATOM     26  C   UNL     1       2.277  -4.885  27.717  0.00  0.00    +0.015 C 
ATOM     27  C   UNL     1       2.372  -3.445  28.073  0.00  0.00    +0.001 C 
BRANCH  15  28
ATOM     28  C   UNL     1       1.282  -0.416  23.152  0.00  0.00    +0.007 C 
ATOM     29  C   UNL     1       1.477   0.674  22.129  0.00  0.00    +0.000 C 
ENDBRANCH  15  28
ENDBRANCH   1  26
BRANCH   8  30
ATOM     30  C   UNL     1      -1.556  -6.471  30.439  0.00  0.00    +0.023 C 
ATOM     31  C   UNL     1      -1.586  -4.984  30.397  0.00  0.00    +0.005 C 
ATOM     32  C   UNL     1      -2.881  -4.389  30.840  0.00  0.00    +0.005 C 
ATOM     33  C   UNL     1      -4.024  -5.414  30.763  0.00  0.00    +0.026 C 
ATOM     34  C   UNL     1      -3.604  -6.470  31.746  0.00  0.00    -0.026 C 
ATOM     35  C   UNL     1      -2.323  -6.992  31.560  0.00  0.00    -0.026 C 
ATOM     36  C   UNL     1      -1.862  -7.972  32.437  0.00  0.00    -0.005 C 
ATOM     37  C   UNL     1      -2.707  -8.374  33.447  0.00  0.00    -0.000 C 
ATOM     38  C   UNL     1      -3.959  -7.875  33.641  0.00  0.00    -0.000 C 
ATOM     39  C   UNL     1      -4.399  -6.898  32.755  0.00  0.00    -0.005 C 
ENDBRANCH   8  30
BRANCH   9  40
ATOM     40  C   UNL     1      -0.398  -8.461  28.228  0.00  0.00    +0.218 C 
ATOM     41  O   UNL     1      -0.621  -9.392  29.034  0.00  0.00    -0.287 OA
BRANCH  40  42
ATOM     42  C   UNL     1      -0.650  -8.587  26.812  0.00  0.00    +0.272 C 
ATOM     43  O   UNL     1      -0.236  -9.573  26.162  0.00  0.00    -0.280 OA
ENDBRANCH  40  42
ENDBRANCH   9  40
TORSDOF 5
ENDMDL
