REMARK  Name = =
REMARK  0 active torsions:
REMARK  status: ('A' for Active; 'I' for Inactive)
REMARK                            x       y       z     vdW  Elec       q    Type
REMARK                         _______ _______ _______ _____ _____    ______ ____
ROOT
ATOM      1  C   UNL     1      52.490 156.353  28.030  0.00  0.00    +0.102 C 
ATOM      2  C   UNL     1      52.987 155.787  26.873  0.00  0.00    +0.037 C 
ATOM      3  C   UNL     1      52.974 154.407  26.796  0.00  0.00    +0.085 C 
ATOM      4  N   UNL     1      52.496 153.658  27.810  0.00  0.00    -0.224 NA
ATOM      5  C   UNL     1      52.012 154.220  28.934  0.00  0.00    +0.199 C 
ATOM      6  N   UNL     1      52.019 155.558  29.022  0.00  0.00    -0.222 NA
ATOM      7  C   UNL     1      53.473 153.851  25.635  0.00  0.00    +0.019 C 
ATOM      8  C   UNL     1      53.967 154.591  24.587  0.00  0.00    +0.002 C 
ATOM      9  C   UNL     1      53.958 155.969  24.714  0.00  0.00    +0.000 C 
ATOM     10  C   UNL     1      53.475 156.579  25.842  0.00  0.00    +0.003 C 
ENDROOT
TORSDOF 0
