REMARK  Name = =
REMARK  1 active torsions:
REMARK  status: ('A' for Active; 'I' for Inactive)
REMARK    1  A    between atoms: C_5  and  O_8
REMARK                            x       y       z     vdW  Elec       q    Type
REMARK                         _______ _______ _______ _____ _____    ______ ____
ROOT
ATOM      1  F   UNL     1      48.375 158.057  29.841  0.00  0.00    -0.204 F 
ATOM      2  C   UNL     1      48.831 159.037  30.655  0.00  0.00    +0.140 C 
ATOM      3  C   UNL     1      50.119 159.497  30.500  0.00  0.00    +0.033 C 
ATOM      4  C   UNL     1      50.612 160.509  31.330  0.00  0.00    +0.039 C 
ATOM      5  C   UNL     1      49.809 161.048  32.307  0.00  0.00    +0.134 C 
ATOM      6  C   UNL     1      48.524 160.591  32.464  0.00  0.00    +0.039 C 
ATOM      7  C   UNL     1      48.041 159.590  31.641  0.00  0.00    +0.033 C 
ENDROOT
BRANCH   5   8
ATOM      8  O   UNL     1      50.280 162.043  33.131  0.00  0.00    -0.506 OA
ATOM      9  H   UNL     1      51.156 162.360  33.030  0.00  0.00    +0.292 HD
ENDBRANCH   5   8
TORSDOF 1
