REMARK  Name = =
REMARK  1 active torsions:
REMARK  status: ('A' for Active; 'I' for Inactive)
REMARK    1  A    between atoms: C_1  and  C_11
REMARK                            x       y       z     vdW  Elec       q    Type
REMARK                         _______ _______ _______ _____ _____    ______ ____
ROOT
ATOM      1  C   UNL     1      51.977 156.879  29.069  0.00  0.00    +0.122 C 
ATOM      2  N   UNL     1      53.035 157.664  29.112  0.00  0.00    -0.146 NA
ATOM      3  N   UNL     1      53.055 158.877  29.537  0.00  0.00    -0.146 NA
ATOM      4  C   UNL     1      51.928 159.461  29.996  0.00  0.00    +0.122 C 
ATOM      5  C   UNL     1      50.772 158.726  29.993  0.00  0.00    +0.026 C 
ATOM      6  C   UNL     1      50.782 157.427  29.530  0.00  0.00    +0.042 C 
ATOM      7  C   UNL     1      49.622 156.692  29.529  0.00  0.00    +0.100 C 
ATOM      8  N   UNL     1      48.489 157.286  29.992  0.00  0.00    -0.242 NA
ATOM      9  C   UNL     1      48.416 158.535  30.450  0.00  0.00    +0.099 C 
ATOM     10  C   UNL     1      49.580 159.259  30.448  0.00  0.00    +0.022 C 
ENDROOT
BRANCH   1  11
ATOM     11  C   UNL     1      52.079 155.524  28.566  0.00  0.00    +0.104 C 
ATOM     12  C   UNL     1      52.510 155.275  27.270  0.00  0.00    +0.037 C 
ATOM     13  C   UNL     1      52.587 153.940  26.844  0.00  0.00    +0.085 C 
ATOM     14  N   UNL     1      52.249 152.950  27.682  0.00  0.00    -0.224 NA
ATOM     15  C   UNL     1      51.832 153.186  28.933  0.00  0.00    +0.199 C 
ATOM     16  N   UNL     1      51.771 154.465  29.303  0.00  0.00    -0.222 NA
ATOM     17  C   UNL     1      53.010 153.625  25.559  0.00  0.00    +0.019 C 
ATOM     18  C   UNL     1      53.363 154.618  24.682  0.00  0.00    +0.002 C 
ATOM     19  C   UNL     1      53.287 155.919  25.102  0.00  0.00    +0.000 C 
ATOM     20  C   UNL     1      52.864 156.261  26.388  0.00  0.00    +0.003 C 
ENDBRANCH   1  11
TORSDOF 1
