REMARK  Name = =
REMARK  3 active torsions:
REMARK  status: ('A' for Active; 'I' for Inactive)
REMARK    1  A    between atoms: N_1  and  C_9
REMARK    2  A    between atoms: C_2  and  N_15
REMARK    3  A    between atoms: C_11  and  O_14
REMARK                            x       y       z     vdW  Elec       q    Type
REMARK                         _______ _______ _______ _____ _____    ______ ____
ROOT
ATOM      1  N   UNL     1      51.218 156.981  29.506  0.00  0.00    -0.294 N 
ATOM      2  C   UNL     1      51.370 156.398  28.217  0.00  0.00    +0.134 C 
ATOM      3  C   UNL     1      50.846 154.966  28.284  0.00  0.00    +0.037 C 
ATOM      4  C   UNL     1      49.484 155.008  28.939  0.00  0.00    +0.005 C 
ATOM      5  C   UNL     1      49.616 155.403  30.388  0.00  0.00    +0.022 C 
ATOM      6  C   UNL     1      50.957 156.096  30.627  0.00  0.00    +0.092 C 
ENDROOT
BRANCH   1   9
ATOM      7  F   UNL     1      48.924 158.532  29.770  0.00  0.00    -0.203 F 
ATOM      8  C   UNL     1      50.156 159.094  29.919  0.00  0.00    +0.154 C 
ATOM      9  C   UNL     1      51.300 158.368  29.794  0.00  0.00    +0.080 C 
ATOM     10  C   UNL     1      52.511 158.993  29.956  0.00  0.00    +0.053 C 
ATOM     11  C   UNL     1      52.633 160.350  30.246  0.00  0.00    +0.135 C 
ATOM     12  C   UNL     1      51.442 161.045  30.363  0.00  0.00    +0.039 C 
ATOM     13  C   UNL     1      50.215 160.436  30.204  0.00  0.00    +0.034 C 
BRANCH  11  14
ATOM     14  O   UNL     1      53.871 160.963  30.406  0.00  0.00    -0.505 OA
ATOM     15  H   UNL     1      54.657 160.461  30.320  0.00  0.00    +0.292 HD
ENDBRANCH  11  14
ENDBRANCH   1   9
BRANCH   2  16
ATOM     16  N   UNL     1      52.706 156.439  27.664  0.00  0.00    -0.258 NA
ATOM     17  C   UNL     1      52.925 155.087  27.115  0.00  0.00    +0.074 C 
ATOM     18  C   UNL     1      53.882 155.243  25.969  0.00  0.00    +0.019 C 
ATOM     19  C   UNL     1      53.846 156.692  25.630  0.00  0.00    +0.019 C 
ATOM     20  C   UNL     1      52.605 157.175  26.392  0.00  0.00    +0.074 C 
ENDBRANCH   2  16
TORSDOF 3
