REMARK  Name = =
REMARK  5 active torsions:
REMARK  status: ('A' for Active; 'I' for Inactive)
REMARK    1  A    between atoms: C_1  and  N_6
REMARK    2  A    between atoms: C_1  and  S_12
REMARK    3  A    between atoms: S_12  and  P_13
REMARK    4  A    between atoms: P_13  and  O_15
REMARK    5  A    between atoms: P_13  and  O_16
REMARK                            x       y       z     vdW  Elec       q    Type
REMARK                         _______ _______ _______ _____ _____    ______ ____
ROOT
ATOM      1  C   UNL     1      52.606 153.869  26.618  0.00  0.00    +0.111 C 
ATOM      2  C   UNL     1      53.845 153.162  27.203  0.00  0.00    +0.094 C 
ATOM      3  N   UNL     1      53.802 151.893  26.502  0.00  0.00    -0.296 NA
ATOM      4  C   UNL     1      52.430 151.598  26.174  0.00  0.00    +0.071 C 
ATOM      5  C   UNL     1      51.609 152.726  26.765  0.00  0.00    +0.044 C 
ATOM      6  H   UNL     1      54.179 151.157  27.099  0.00  0.00    +0.123 HD
ENDROOT
BRANCH   1   7
ATOM      7  N   UNL     1      52.319 154.981  27.402  0.00  0.00    -0.265 NA
ATOM      8  C   UNL     1      52.807 156.222  26.919  0.00  0.00    +0.073 C 
ATOM      9  C   UNL     1      52.771 157.206  28.090  0.00  0.00    +0.017 C 
ATOM     10  C   UNL     1      52.685 156.481  29.414  0.00  0.00    +0.003 C 
ATOM     11  C   UNL     1      51.419 155.626  29.484  0.00  0.00    +0.017 C 
ATOM     12  C   UNL     1      51.087 155.113  28.066  0.00  0.00    +0.073 C 
ENDBRANCH   1   7
BRANCH   1  13
ATOM     13  S   UNL     1      53.016 154.150  24.894  0.00  0.00    -0.016 S 
BRANCH  13  14
ATOM     14  P   UNL     1      54.679 153.138  24.186  0.00  0.00    +0.388 P 
ATOM     15  O   UNL     1      54.490 151.689  23.909  0.00  0.00    -0.246 OA
BRANCH  14  16
ATOM     16  O   UNL     1      55.947 153.272  25.332  0.00  0.00    -0.316 OA
ATOM     17  H   UNL     1      55.690 152.823  26.153  0.00  0.00    +0.221 HD
ENDBRANCH  14  16
BRANCH  14  18
ATOM     18  O   UNL     1      55.228 153.956  22.783  0.00  0.00    -0.316 OA
ATOM     19  H   UNL     1      55.345 154.898  22.983  0.00  0.00    +0.221 HD
ENDBRANCH  14  18
ENDBRANCH  13  14
ENDBRANCH   1  13
TORSDOF 5
