REMARK  Name = =
REMARK  0 active torsions:
REMARK  status: ('A' for Active; 'I' for Inactive)
REMARK                            x       y       z     vdW  Elec       q    Type
REMARK                         _______ _______ _______ _____ _____    ______ ____
ROOT
ATOM      1  C   UNL     1      52.294 155.473  28.846  0.00  0.00    +0.100 C 
ATOM      2  C   UNL     1      52.429 154.743  27.706  0.00  0.00    +0.050 C 
ATOM      3  C   UNL     1      52.044 153.366  27.744  0.00  0.00    +0.086 C 
ATOM      4  N   UNL     1      51.576 152.833  28.877  0.00  0.00    -0.224 NA
ATOM      5  C   UNL     1      51.457 153.541  29.990  0.00  0.00    +0.199 C 
ATOM      6  N   UNL     1      51.811 154.806  29.937  0.00  0.00    -0.223 NA
ATOM      7  C   UNL     1      52.184 152.542  26.651  0.00  0.00    +0.019 C 
ATOM      8  C   UNL     1      52.718 153.052  25.497  0.00  0.00    +0.003 C 
ATOM      9  C   UNL     1      53.100 154.345  25.446  0.00  0.00    +0.015 C 
ATOM     10  C   UNL     1      52.965 155.224  26.561  0.00  0.00    +0.059 C 
ATOM     11  C   UNL     1      52.536 156.877  29.008  0.00  0.00    +0.087 C 
ATOM     12  N   UNL     1      53.660 157.551  28.886  0.00  0.00    -0.189 N 
ATOM     13  N   UNL     1      53.842 158.811  29.103  0.00  0.00    -0.179 NA
ATOM     14  C   UNL     1      52.871 159.641  29.496  0.00  0.00    +0.100 C 
ATOM     15  C   UNL     1      51.632 159.057  29.667  0.00  0.00    +0.091 C 
ATOM     16  C   UNL     1      51.462 157.693  29.428  0.00  0.00    +0.023 C 
ATOM     17  C   UNL     1      50.199 157.228  29.673  0.00  0.00    +0.097 C 
ATOM     18  N   UNL     1      49.178 158.044  30.114  0.00  0.00    -0.243 NA
ATOM     19  C   UNL     1      49.335 159.346  30.337  0.00  0.00    +0.095 C 
ATOM     20  C   UNL     1      50.583 159.865  30.111  0.00  0.00    +0.005 C 
ATOM     21  N   UNL     1      53.600 156.462  26.372  0.00  0.00    -0.235 N 
ATOM     22  C   UNL     1      54.441 157.141  27.319  0.00  0.00    +0.200 C 
ATOM     23  C   UNL     1      55.119 158.279  26.584  0.00  0.00    +0.021 C 
ATOM     24  C   UNL     1      54.682 158.234  25.158  0.00  0.00    +0.057 C 
ATOM     25  C   UNL     1      53.682 157.148  25.129  0.00  0.00    +0.254 C 
ATOM     26  O   UNL     1      52.987 156.865  24.122  0.00  0.00    -0.270 OA
ENDROOT
TORSDOF 0
