REMARK  Name = =
REMARK  6 active torsions:
REMARK  status: ('A' for Active; 'I' for Inactive)
REMARK    1  A    between atoms: N_1  and  C_9
REMARK    2  A    between atoms: C_2  and  N_15
REMARK    3  A    between atoms: C_11  and  O_14
REMARK    4  A    between atoms: C_16  and  O_20
REMARK    5  A    between atoms: O_20  and  C_21
REMARK    6  A    between atoms: C_21  and  O_23
REMARK                            x       y       z     vdW  Elec       q    Type
REMARK                         _______ _______ _______ _____ _____    ______ ____
ROOT
ATOM      1  N   UNL     1      52.349 158.518  29.819  0.00  0.00    -0.294 N 
ATOM      2  C   UNL     1      53.162 157.727  28.958  0.00  0.00    +0.137 C 
ATOM      3  C   UNL     1      54.469 158.266  28.500  0.00  0.00    +0.037 C 
ATOM      4  C   UNL     1      55.062 159.347  29.387  0.00  0.00    +0.005 C 
ATOM      5  C   UNL     1      53.938 160.266  29.918  0.00  0.00    +0.022 C 
ATOM      6  C   UNL     1      53.074 159.343  30.782  0.00  0.00    +0.092 C 
ENDROOT
BRANCH   1   9
ATOM      7  F   UNL     1      50.822 160.877  30.061  0.00  0.00    -0.203 F 
ATOM      8  C   UNL     1      50.205 159.677  29.969  0.00  0.00    +0.154 C 
ATOM      9  C   UNL     1      50.956 158.536  29.871  0.00  0.00    +0.080 C 
ATOM     10  C   UNL     1      50.300 157.331  29.795  0.00  0.00    +0.053 C 
ATOM     11  C   UNL     1      48.900 157.228  29.812  0.00  0.00    +0.135 C 
ATOM     12  C   UNL     1      48.158 158.365  29.907  0.00  0.00    +0.039 C 
ATOM     13  C   UNL     1      48.814 159.595  29.987  0.00  0.00    +0.034 C 
BRANCH  11  14
ATOM     14  O   UNL     1      48.343 155.986  29.745  0.00  0.00    -0.505 OA
ATOM     15  H   UNL     1      48.892 155.229  29.680  0.00  0.00    +0.292 HD
ENDBRANCH  11  14
ENDBRANCH   1   9
BRANCH   2  16
ATOM     16  N   UNL     1      52.523 156.953  27.961  0.00  0.00    -0.225 NA
ATOM     17  C   UNL     1      53.216 155.401  28.214  0.00  0.00    +0.236 C 
ATOM     18  C   UNL     1      52.111 154.951  26.901  0.00  0.00    +0.063 C 
ATOM     19  C   UNL     1      52.749 155.839  25.908  0.00  0.00    +0.023 C 
ATOM     20  C   UNL     1      53.181 157.091  26.685  0.00  0.00    +0.077 C 
BRANCH  17  21
ATOM     21  O   UNL     1      52.423 155.092  29.150  0.00  0.00    -0.406 OA
BRANCH  21  22
ATOM     22  C   UNL     1      51.299 154.700  29.645  0.00  0.00    +0.510 C 
ATOM     23  O   UNL     1      50.451 154.158  28.813  0.00  0.00    -0.203 OA
BRANCH  22  24
ATOM     24  O   UNL     1      50.871 154.793  30.994  0.00  0.00    -0.450 OA
ATOM     25  H   UNL     1      50.026 154.472  31.241  0.00  0.00    +0.299 HD
ENDBRANCH  22  24
ENDBRANCH  21  22
ENDBRANCH  17  21
ENDBRANCH   2  16
TORSDOF 6
