REMARK  Name = =
REMARK  7 active torsions:
REMARK  status: ('A' for Active; 'I' for Inactive)
REMARK    1  A    between atoms: N_1  and  C_7
REMARK    2  A    between atoms: C_2  and  O_20
REMARK    3  A    between atoms: N_6  and  C_14
REMARK    4  A    between atoms: C_16  and  O_19
REMARK    5  A    between atoms: O_20  and  C_21
REMARK    6  A    between atoms: C_21  and  O_23
REMARK    7  A    between atoms: O_23  and  N_24
REMARK                            x       y       z     vdW  Elec       q    Type
REMARK                         _______ _______ _______ _____ _____    ______ ____
ROOT
ATOM      1  N   UNL     1      53.365 158.545  29.493  0.00  0.00    -0.225 NA
ATOM      2  C   UNL     1      52.879 159.320  30.556  0.00  0.00    +0.236 C 
ATOM      3  C   UNL     1      53.504 160.697  30.374  0.00  0.00    +0.063 C 
ATOM      4  C   UNL     1      54.780 160.370  29.627  0.00  0.00    +0.023 C 
ATOM      5  C   UNL     1      54.754 158.825  29.494  0.00  0.00    +0.077 C 
ENDROOT
BRANCH   1   7
ATOM      6  N   UNL     1      52.532 156.984  27.835  0.00  0.00    -0.294 N 
ATOM      7  C   UNL     1      52.882 157.264  29.237  0.00  0.00    +0.137 C 
ATOM      8  C   UNL     1      51.644 156.895  30.078  0.00  0.00    +0.037 C 
ATOM      9  C   UNL     1      50.393 157.430  29.419  0.00  0.00    +0.005 C 
ATOM     10  C   UNL     1      50.745 158.523  28.467  0.00  0.00    +0.022 C 
ATOM     11  C   UNL     1      51.531 157.894  27.309  0.00  0.00    +0.092 C 
BRANCH   6  14
ATOM     12  F   UNL     1      54.135 157.398  25.542  0.00  0.00    -0.203 F 
ATOM     13  C   UNL     1      53.779 156.158  25.931  0.00  0.00    +0.154 C 
ATOM     14  C   UNL     1      53.010 155.937  27.043  0.00  0.00    +0.080 C 
ATOM     15  C   UNL     1      52.691 154.601  27.383  0.00  0.00    +0.053 C 
ATOM     16  C   UNL     1      53.119 153.541  26.649  0.00  0.00    +0.135 C 
ATOM     17  C   UNL     1      53.894 153.754  25.527  0.00  0.00    +0.039 C 
ATOM     18  C   UNL     1      54.210 155.045  25.189  0.00  0.00    +0.034 C 
BRANCH  16  19
ATOM     19  O   UNL     1      52.783 152.245  27.019  0.00  0.00    -0.505 OA
ATOM     20  H   UNL     1      52.257 152.097  27.780  0.00  0.00    +0.292 HD
ENDBRANCH  16  19
ENDBRANCH   6  14
ENDBRANCH   1   7
BRANCH   2  21
ATOM     21  O   UNL     1      51.549 159.354  30.872  0.00  0.00    -0.404 OA
BRANCH  21  22
ATOM     22  C   UNL     1      50.806 160.472  31.109  0.00  0.00    +0.535 C 
ATOM     23  O   UNL     1      51.029 161.148  32.130  0.00  0.00    -0.201 OA
BRANCH  22  24
ATOM     24  O   UNL     1      49.815 160.869  30.244  0.00  0.00    -0.313 OA
BRANCH  24  25
ATOM     25  N   UNL     1      48.563 161.099  30.757  0.00  0.00    -0.126 N 
ATOM     26  C   UNL     1      47.831 159.944  31.180  0.00  0.00    +0.329 C 
ATOM     27  O   UNL     1      48.309 158.780  31.088  0.00  0.00    -0.250 OA
ATOM     28  N   UNL     1      46.524 160.075  31.728  0.00  0.00    -0.311 N 
ATOM     29  H   UNL     1      48.190 162.007  30.830  0.00  0.00    +0.198 HD
ATOM     30  H   UNL     1      46.115 160.966  31.817  0.00  0.00    +0.147 HD
ATOM     31  H   UNL     1      46.029 159.275  32.018  0.00  0.00    +0.147 HD
ENDBRANCH  24  25
ENDBRANCH  22  24
ENDBRANCH  21  22
ENDBRANCH   2  21
TORSDOF 7
