REMARK  Name = =
REMARK  10 active torsions:
REMARK  status: ('A' for Active; 'I' for Inactive)
REMARK    1  A    between atoms: N_1  and  C_7
REMARK    2  A    between atoms: C_2  and  O_20
REMARK    3  A    between atoms: N_6  and  C_14
REMARK    4  A    between atoms: C_16  and  O_19
REMARK    5  A    between atoms: O_20  and  C_21
REMARK    6  A    between atoms: C_21  and  O_23
REMARK    7  A    between atoms: O_23  and  N_24
REMARK    8  A    between atoms: N_24  and  S_28
REMARK    9  A    between atoms: S_28  and  C_29
REMARK   10  A    between atoms: C_29  and  N_31
REMARK                            x       y       z     vdW  Elec       q    Type
REMARK                         _______ _______ _______ _____ _____    ______ ____
ROOT
ATOM      1  N   UNL     1      51.331 155.635  28.507  0.00  0.00    -0.225 NA
ATOM      2  C   UNL     1      51.534 156.589  29.545  0.00  0.00    +0.236 C 
ATOM      3  C   UNL     1      50.280 156.445  30.448  0.00  0.00    +0.063 C 
ATOM      4  C   UNL     1      49.241 156.216  29.350  0.00  0.00    +0.023 C 
ATOM      5  C   UNL     1      50.008 155.138  28.552  0.00  0.00    +0.077 C 
ENDROOT
BRANCH   1   7
ATOM      6  N   UNL     1      52.451 154.079  27.037  0.00  0.00    -0.294 N 
ATOM      7  C   UNL     1      52.398 154.674  28.359  0.00  0.00    +0.137 C 
ATOM      8  C   UNL     1      52.383 153.608  29.392  0.00  0.00    +0.037 C 
ATOM      9  C   UNL     1      52.834 152.305  28.764  0.00  0.00    +0.005 C 
ATOM     10  C   UNL     1      51.665 151.930  27.833  0.00  0.00    +0.022 C 
ATOM     11  C   UNL     1      51.540 152.973  26.747  0.00  0.00    +0.092 C 
BRANCH   6  14
ATOM     12  F   UNL     1      54.289 152.340  25.770  0.00  0.00    -0.203 F 
ATOM     13  C   UNL     1      54.259 153.647  25.460  0.00  0.00    +0.154 C 
ATOM     14  C   UNL     1      53.357 154.503  26.033  0.00  0.00    +0.080 C 
ATOM     15  C   UNL     1      53.383 155.810  25.635  0.00  0.00    +0.053 C 
ATOM     16  C   UNL     1      54.295 156.247  24.686  0.00  0.00    +0.135 C 
ATOM     17  C   UNL     1      55.199 155.377  24.116  0.00  0.00    +0.039 C 
ATOM     18  C   UNL     1      55.188 154.062  24.502  0.00  0.00    +0.034 C 
BRANCH  16  19
ATOM     19  O   UNL     1      54.322 157.580  24.279  0.00  0.00    -0.505 OA
ATOM     20  H   UNL     1      53.720 158.195  24.649  0.00  0.00    +0.292 HD
ENDBRANCH  16  19
ENDBRANCH   6  14
ENDBRANCH   1   7
BRANCH   2  21
ATOM     21  O   UNL     1      51.477 157.932  29.108  0.00  0.00    -0.404 OA
BRANCH  21  22
ATOM     22  C   UNL     1      52.000 158.950  29.899  0.00  0.00    +0.536 C 
ATOM     23  O   UNL     1      51.506 159.131  31.038  0.00  0.00    -0.201 OA
BRANCH  22  24
ATOM     24  O   UNL     1      53.029 159.775  29.494  0.00  0.00    -0.298 OA
BRANCH  24  25
ATOM     25  N   UNL     1      53.824 160.479  30.346  0.00  0.00    -0.045 N 
ATOM     26  C   UNL     1      55.224 160.407  30.245  0.00  0.00    +0.343 C 
ATOM     27  O   UNL     1      55.933 161.067  31.059  0.00  0.00    -0.249 OA
ATOM     28  N   UNL     1      55.906 159.631  29.275  0.00  0.00    -0.310 N 
ATOM     29  H   UNL     1      55.396 159.101  28.621  0.00  0.00    +0.147 HD
ATOM     30  H   UNL     1      56.890 159.622  29.255  0.00  0.00    +0.147 HD
BRANCH  25  31
ATOM     31  S   UNL     1      53.079 161.496  31.570  0.00  0.00    +0.046 S 
BRANCH  31  32
ATOM     32  C   UNL     1      53.232 163.229  31.142  0.00  0.00    +0.126 C 
ATOM     33  S   UNL     1      53.918 163.745  29.756  0.00  0.00    -0.027 S 
BRANCH  32  34
ATOM     34  N   UNL     1      52.731 164.178  32.052  0.00  0.00    -0.346 N 
ATOM     35  H   UNL     1      52.314 163.881  32.893  0.00  0.00    +0.143 HD
ATOM     36  H   UNL     1      52.797 165.139  31.848  0.00  0.00    +0.143 HD
ENDBRANCH  32  34
ENDBRANCH  31  32
ENDBRANCH  25  31
ENDBRANCH  24  25
ENDBRANCH  22  24
ENDBRANCH  21  22
ENDBRANCH   2  21
TORSDOF 10
