REMARK  Name = =
REMARK  0 active torsions:
REMARK  status: ('A' for Active; 'I' for Inactive)
REMARK                            x       y       z     vdW  Elec       q    Type
REMARK                         _______ _______ _______ _____ _____    ______ ____
ROOT
ATOM      1  C   UNL     1      -2.215  -5.266  30.551  0.00  0.00    -0.004 C 
ATOM      2  C   UNL     1      -2.881  -4.116  30.988  0.00  0.00    -0.021 C 
ATOM      3  C   UNL     1      -3.065  -3.045  30.125  0.00  0.00    -0.021 C 
ATOM      4  C   UNL     1      -2.579  -3.142  28.849  0.00  0.00    -0.004 C 
ATOM      5  C   UNL     1      -1.914  -4.283  28.407  0.00  0.00    -0.000 C 
ATOM      6  C   UNL     1      -1.736  -5.340  29.262  0.00  0.00    -0.000 C 
ATOM      7  C   UNL     1      -3.786  -1.816  30.568  0.00  0.00    +0.052 C 
ATOM      8  C   UNL     1      -4.875  -2.230  31.502  0.00  0.00    -0.021 C 
ATOM      9  C   UNL     1      -4.686  -3.290  32.351  0.00  0.00    -0.021 C 
ATOM     10  C   UNL     1      -3.389  -4.002  32.357  0.00  0.00    +0.052 C 
ATOM     11  C   UNL     1      -5.714  -3.687  33.218  0.00  0.00    -0.004 C 
ATOM     12  C   UNL     1      -6.916  -3.024  33.229  0.00  0.00    -0.000 C 
ATOM     13  C   UNL     1      -7.097  -1.961  32.375  0.00  0.00    -0.000 C 
ATOM     14  C   UNL     1      -6.073  -1.572  31.516  0.00  0.00    -0.004 C 
ENDROOT
TORSDOF 0
