REMARK  Name = =
REMARK  4 active torsions:
REMARK  status: ('A' for Active; 'I' for Inactive)
REMARK    1  A    between atoms: C_1  and  C_20
REMARK    2  A    between atoms: C_13  and  N_15
REMARK    3  A    between atoms: C_20  and  O_22
REMARK    4  A    between atoms: O_22  and  N_23
REMARK                            x       y       z     vdW  Elec       q    Type
REMARK                         _______ _______ _______ _____ _____    ______ ____
ROOT
ATOM      1  C   UNL     1      -1.657  -4.241  29.014  0.00  0.00    +0.003 C 
ATOM      2  C   UNL     1      -2.189  -3.071  29.508  0.00  0.00    -0.023 C 
ATOM      3  C   UNL     1      -1.904  -1.838  28.967  0.00  0.00    -0.022 C 
ATOM      4  C   UNL     1      -1.057  -1.719  27.886  0.00  0.00    -0.004 C 
ATOM      5  C   UNL     1      -0.508  -2.855  27.367  0.00  0.00    -0.001 C 
ATOM      6  C   UNL     1      -0.802  -4.095  27.918  0.00  0.00    -0.002 C 
ATOM      7  C   UNL     1      -2.484  -0.594  29.518  0.00  0.00    +0.052 C 
ATOM      8  C   UNL     1      -3.762  -0.809  30.211  0.00  0.00    -0.020 C 
ATOM      9  C   UNL     1      -4.043  -2.045  30.747  0.00  0.00    -0.021 C 
ATOM     10  C   UNL     1      -3.112  -3.190  30.668  0.00  0.00    +0.052 C 
ATOM     11  C   UNL     1      -5.245  -2.215  31.387  0.00  0.00    -0.003 C 
ATOM     12  C   UNL     1      -6.170  -1.169  31.499  0.00  0.00    +0.014 C 
ATOM     13  C   UNL     1      -5.885   0.068  30.960  0.00  0.00    +0.048 C 
ATOM     14  C   UNL     1      -4.656   0.223  30.313  0.00  0.00    +0.010 C 
ENDROOT
BRANCH  13  15
ATOM     15  N   UNL     1      -6.802   1.160  31.055  0.00  0.00    -0.307 N 
ATOM     16  C   UNL     1      -8.092   1.199  31.695  0.00  0.00    +0.091 C 
ATOM     17  C   UNL     1      -8.113   2.586  32.313  0.00  0.00    +0.023 C 
ATOM     18  C   UNL     1      -7.436   3.441  31.259  0.00  0.00    +0.023 C 
ATOM     19  C   UNL     1      -6.561   2.475  30.491  0.00  0.00    +0.091 C 
ENDBRANCH  13  15
BRANCH   1  20
ATOM     20  C   UNL     1      -1.891  -5.590  29.527  0.00  0.00    +0.160 C 
ATOM     21  C   UNL     1      -1.013  -6.620  28.790  0.00  0.00    +0.039 C 
BRANCH  20  22
ATOM     22  O   UNL     1      -1.721  -5.736  30.898  0.00  0.00    -0.280 OA
BRANCH  22  23
ATOM     23  N   UNL     1      -2.684  -6.392  31.533  0.00  0.00    -0.163 NA
ATOM     24  C   UNL     1      -2.658  -5.972  32.933  0.00  0.00    +0.120 C 
ATOM     25  C   UNL     1      -3.907  -6.562  33.592  0.00  0.00    +0.109 C 
ATOM     26  N   UNL     1      -3.668  -7.990  33.694  0.00  0.00    -0.215 NA
ATOM     27  C   UNL     1      -2.503  -8.405  32.963  0.00  0.00    +0.109 C 
ATOM     28  C   UNL     1      -2.400  -7.838  31.582  0.00  0.00    +0.120 C 
ENDBRANCH  22  23
ENDBRANCH  20  22
ENDBRANCH   1  20
TORSDOF 4
