MODEL 1
REMARK VINA RESULT:    -8.615      0.000      0.000
REMARK INTER + INTRA:         -21.292
REMARK INTER:                 -17.932
REMARK INTRA:                  -3.360
REMARK UNBOUND:                -3.360
REMARK  Name = =
REMARK  20 active torsions:
REMARK  status: ('A' for Active; 'I' for Inactive)
REMARK    1  A    between atoms: C_1  and  C_2
REMARK    2  A    between atoms: C_1  and  C_15
REMARK    3  A    between atoms: C_1  and  C_36
REMARK    4  A    between atoms: C_2  and  C_3
REMARK    5  A    between atoms: C_5  and  N_8
REMARK    6  A    between atoms: N_8  and  C_9
REMARK    7  A    between atoms: C_9  and  C_10
REMARK    8  A    between atoms: C_10  and  C_11
REMARK    9  A    between atoms: C_10  and  O_14
REMARK   10  A    between atoms: C_11  and  O_13
REMARK   11  A    between atoms: C_15  and  N_16
REMARK   12  A    between atoms: N_16  and  C_17
REMARK   13  A    between atoms: C_18  and  C_34
REMARK   14  A    between atoms: C_23  and  C_24
REMARK   15  A    between atoms: C_24  and  C_25
REMARK   16  A    between atoms: C_25  and  N_26
REMARK   17  A    between atoms: N_26  and  C_27
REMARK   18  A    between atoms: C_34  and  O_35
REMARK   19  A    between atoms: C_36  and  N_43
REMARK   20  A    between atoms: C_37  and  C_45
REMARK                            x       y       z     vdW  Elec       q    Type
REMARK                         _______ _______ _______ _____ _____    ______ ____
ROOT
ATOM      1  C   UNL     1      -0.518  -7.560  29.173  0.00  0.00    +0.038 C 
ENDROOT
BRANCH   1   2
ATOM      2  C   UNL     1      -1.216  -8.583  30.151  0.00  0.00    +0.070 C 
BRANCH   2   3
ATOM      3  N   UNL     1      -2.397  -8.026  30.649  0.00  0.00    -0.298 NA
ATOM      4  H   UNL     1      -2.797  -8.711  31.290  0.00  0.00    +0.123 HD
BRANCH   3   5
ATOM      5  C   UNL     1      -2.367  -6.785  31.344  0.00  0.00    +0.056 C 
ATOM      6  C   UNL     1      -1.777  -6.629  32.661  0.00  0.00    +0.044 C 
ATOM      7  C   UNL     1      -2.947  -6.687  33.638  0.00  0.00    +0.004 C 
ATOM      8  C   UNL     1      -3.635  -8.027  33.326  0.00  0.00    +0.000 C 
ATOM      9  C   UNL     1      -4.436  -7.771  32.064  0.00  0.00    +0.001 C 
ATOM     10  C   UNL     1      -3.847  -6.409  31.614  0.00  0.00    +0.015 C 
ATOM     11  C   UNL     1      -3.930  -5.782  32.962  0.00  0.00    +0.003 C 
BRANCH  11  12
ATOM     12  C   UNL     1      -3.958  -4.375  33.169  0.00  0.00    +0.021 C 
BRANCH  12  13
ATOM     13  C   UNL     1      -5.140  -3.514  33.103  0.00  0.00    +0.088 C 
BRANCH  13  14
ATOM     14  N   UNL     1      -5.413  -3.252  31.673  0.00  0.00    -0.317 N 
ATOM     15  H   UNL     1      -6.325  -3.414  31.340  0.00  0.00    +0.148 HD
BRANCH  14  16
ATOM     16  C   UNL     1      -4.454  -2.788  30.764  0.00  0.00    +0.150 C 
ATOM     17  C   UNL     1      -3.692  -3.574  29.928  0.00  0.00    +0.037 C 
ATOM     18  C   UNL     1      -2.740  -3.046  29.052  0.00  0.00    +0.019 C 
ATOM     19  C   UNL     1      -2.591  -1.674  29.061  0.00  0.00    +0.081 C 
ATOM     20  C   UNL     1      -1.591  -1.031  28.153  0.00  0.00    +0.054 C 
ATOM     21  N   UNL     1      -3.335  -0.906  29.881  0.00  0.00    -0.151 NA
ATOM     22  N   UNL     1      -4.223  -1.445  30.691  0.00  0.00    -0.133 NA
ENDBRANCH  14  16
ENDBRANCH  13  14
ENDBRANCH  12  13
ENDBRANCH  11  12
BRANCH   6  23
ATOM     23  C   UNL     1      -0.599  -7.336  33.147  0.00  0.00    +0.138 C 
BRANCH  23  24
ATOM     24  O   UNL     1       0.381  -6.515  33.727  0.00  0.00    -0.382 OA
ATOM     25  H   UNL     1       0.448  -5.689  33.224  0.00  0.00    +0.210 HD
ENDBRANCH  23  24
ENDBRANCH   6  23
ENDBRANCH   3   5
ENDBRANCH   2   3
ENDBRANCH   1   2
BRANCH   1  26
ATOM     26  C   UNL     1      -0.435  -8.270  27.878  0.00  0.00    +0.074 C 
BRANCH  26  33
ATOM     27  C   UNL     1       1.508  -8.902  26.631  0.00  0.00    +0.073 C 
ATOM     28  C   UNL     1       1.475  -7.467  26.175  0.00  0.00    +0.019 C 
ATOM     29  C   UNL     1       0.970  -9.724  25.438  0.00  0.00    +0.157 C 
ATOM     30  O   UNL     1       1.417 -11.029  25.669  0.00  0.00    -0.351 OA
ATOM     31  C   UNL     1       0.779 -11.536  26.815  0.00  0.00    +0.159 C 
ATOM     32  C   UNL     1      -0.000 -10.499  27.519  0.00  0.00    +0.105 C 
ATOM     33  N   UNL     1       0.684  -9.233  27.766  0.00  0.00    -0.271 NA
BRANCH  27  35
ATOM     34  C   UNL     1       3.746  -8.356  27.692  0.00  0.00    +0.001 C 
ATOM     35  C   UNL     1       2.964  -9.253  26.810  0.00  0.00    +0.017 C 
ENDBRANCH  27  35
ENDBRANCH  26  33
ENDBRANCH   1  26
BRANCH   1  36
ATOM     36  C   UNL     1       0.801  -7.325  29.851  0.00  0.00    +0.052 C 
BRANCH  36  37
ATOM     37  C   UNL     1       1.259  -5.971  30.042  0.00  0.00    +0.102 C 
ATOM     38  C   UNL     1       1.305  -5.056  28.976  0.00  0.00    +0.074 C 
ATOM     39  C   UNL     1       1.750  -3.867  29.469  0.00  0.00    +0.227 C 
ATOM     40  O   UNL     1       1.960  -4.056  30.761  0.00  0.00    -0.339 OA
ATOM     41  N   UNL     1       1.674  -5.275  31.085  0.00  0.00    -0.080 NA
BRANCH  39  42
ATOM     42  N   UNL     1       1.944  -2.672  28.726  0.00  0.00    -0.299 N 
ATOM     43  H   UNL     1       1.724  -1.810  29.150  0.00  0.00    +0.150 HD
BRANCH  42  44
ATOM     44  C   UNL     1       2.453  -2.670  27.374  0.00  0.00    +0.131 C 
BRANCH  44  45
ATOM     45  C   UNL     1       1.631  -1.701  26.553  0.00  0.00    +0.229 C 
BRANCH  45  46
ATOM     46  O   UNL     1       0.753  -2.385  25.710  0.00  0.00    -0.373 OA
ATOM     47  H   UNL     1       0.419  -1.779  25.030  0.00  0.00    +0.211 HD
ENDBRANCH  45  46
BRANCH  45  48
ATOM     48  C   UNL     1       2.439  -0.756  25.779  0.00  0.00    +0.343 C 
ATOM     49  O   UNL     1       3.624  -1.045  25.489  0.00  0.00    -0.248 OA
BRANCH  48  50
ATOM     50  O   UNL     1       1.919   0.468  25.347  0.00  0.00    -0.478 OA
ATOM     51  H   UNL     1       2.160   0.810  24.508  0.00  0.00    +0.295 HD
ENDBRANCH  48  50
ENDBRANCH  45  48
ENDBRANCH  44  45
ENDBRANCH  42  44
ENDBRANCH  39  42
ENDBRANCH  36  37
ENDBRANCH   1  36
TORSDOF 20
ENDMDL
