REMARK  Name = =
REMARK  0 active torsions:
REMARK  status: ('A' for Active; 'I' for Inactive)
REMARK                            x       y       z     vdW  Elec       q    Type
REMARK                         _______ _______ _______ _____ _____    ______ ____
ROOT
ATOM      1  C   UNL     1      -4.884  -4.504  33.142  0.00  0.00    +0.000 C 
ATOM      2  C   UNL     1      -4.348  -5.495  32.153  0.00  0.00    +0.000 C 
ATOM      3  C   UNL     1      -3.744  -6.704  32.867  0.00  0.00    +0.000 C 
ATOM      4  C   UNL     1      -3.567  -7.770  31.785  0.00  0.00    +0.000 C 
ATOM      5  C   UNL     1      -2.484  -7.288  30.851  0.00  0.00    +0.000 C 
ATOM      6  C   UNL     1      -2.927  -5.990  30.232  0.00  0.00    +0.000 C 
ATOM      7  C   UNL     1      -3.298  -4.944  31.246  0.00  0.00    +0.000 C 
ATOM      8  C   UNL     1      -3.819  -3.735  30.519  0.00  0.00    +0.000 C 
ATOM      9  C   UNL     1      -4.315  -2.745  31.552  0.00  0.00    +0.000 C 
ATOM     10  C   UNL     1      -5.434  -3.322  32.393  0.00  0.00    +0.000 C 
ENDROOT
TORSDOF 0
