REMARK  Name = =
REMARK  1 active torsions:
REMARK  status: ('A' for Active; 'I' for Inactive)
REMARK    1  A    between atoms: C_1  and  C_21
REMARK                            x       y       z     vdW  Elec       q    Type
REMARK                         _______ _______ _______ _____ _____    ______ ____
ROOT
ATOM      1  C   UNL     1      -5.955  -2.052  32.463  0.00  0.00    -0.006 C 
ATOM      2  C   UNL     1      -5.835  -0.821  31.851  0.00  0.00    +0.068 C 
ATOM      3  N   UNL     1      -7.070  -0.287  31.745  0.00  0.00    -0.229 N 
ATOM      4  C   UNL     1      -7.998  -1.110  32.257  0.00  0.00    +0.058 C 
ATOM      5  C   UNL     1      -7.300  -2.219  32.710  0.00  0.00    +0.011 C 
ATOM      6  C   UNL     1      -7.988  -3.270  33.308  0.00  0.00    +0.001 C 
ATOM      7  C   UNL     1      -9.354  -3.241  33.465  0.00  0.00    +0.000 C 
ATOM      8  C   UNL     1     -10.023  -2.115  32.999  0.00  0.00    +0.001 C 
ATOM      9  C   UNL     1      -9.365  -1.073  32.410  0.00  0.00    +0.015 C 
ATOM     10  C   UNL     1      -7.343   0.977  31.164  0.00  0.00    +0.311 C 
ATOM     11  O   UNL     1      -6.475   1.743  30.683  0.00  0.00    -0.264 OA
ENDROOT
BRANCH   1  21
ATOM     12  C   UNL     1      -5.296  -4.443  32.468  0.00  0.00    +0.005 C 
ATOM     13  C   UNL     1      -4.093  -5.236  32.098  0.00  0.00    +0.005 C 
ATOM     14  C   UNL     1      -4.392  -6.693  31.928  0.00  0.00    +0.026 C 
ATOM     15  C   UNL     1      -3.181  -7.517  31.626  0.00  0.00    -0.031 C 
ATOM     16  C   UNL     1      -2.053  -6.830  30.985  0.00  0.00    -0.031 C 
ATOM     17  C   UNL     1      -2.137  -5.382  30.716  0.00  0.00    +0.026 C 
ATOM     18  C   UNL     1      -3.518  -4.807  30.735  0.00  0.00    +0.005 C 
ATOM     19  C   UNL     1      -3.528  -3.314  30.677  0.00  0.00    +0.001 C 
ATOM     20  C   UNL     1      -3.604  -2.660  32.020  0.00  0.00    +0.004 C 
ATOM     21  C   UNL     1      -4.882  -3.020  32.787  0.00  0.00    +0.024 C 
ENDBRANCH   1  21
TORSDOF 1
