REMARK  Name = =
REMARK  2 active torsions:
REMARK  status: ('A' for Active; 'I' for Inactive)
REMARK    1  A    between atoms: C_1  and  C_22
REMARK    2  A    between atoms: C_10  and  C_11
REMARK                            x       y       z     vdW  Elec       q    Type
REMARK                         _______ _______ _______ _____ _____    ______ ____
ROOT
ATOM      1  C   UNL     1      -4.439  -3.647  31.288  0.00  0.00    +0.005 C 
ATOM      2  C   UNL     1      -3.881  -4.701  32.196  0.00  0.00    +0.000 C 
ATOM      3  C   UNL     1      -2.935  -4.211  33.217  0.00  0.00    +0.000 C 
ATOM      4  C   UNL     1      -2.201  -5.365  33.848  0.00  0.00    +0.000 C 
ATOM      5  C   UNL     1      -3.257  -6.237  34.509  0.00  0.00    +0.000 C 
ATOM      6  C   UNL     1      -4.169  -6.815  33.471  0.00  0.00    +0.000 C 
ATOM      7  C   UNL     1      -4.783  -5.788  32.580  0.00  0.00    +0.000 C 
ATOM      8  C   UNL     1      -5.887  -5.095  33.379  0.00  0.00    +0.000 C 
ATOM      9  C   UNL     1      -6.511  -4.001  32.671  0.00  0.00    +0.004 C 
ATOM     10  C   UNL     1      -5.929  -3.427  31.416  0.00  0.00    +0.024 C 
ENDROOT
BRANCH  10  11
ATOM     11  C   UNL     1      -6.217  -1.949  31.566  0.00  0.00    -0.006 C 
ATOM     12  C   UNL     1      -5.175  -1.062  31.839  0.00  0.00    +0.068 C 
ATOM     13  N   UNL     1      -5.671   0.210  31.807  0.00  0.00    -0.229 N 
ATOM     14  C   UNL     1      -6.997   0.130  31.518  0.00  0.00    +0.058 C 
ATOM     15  C   UNL     1      -7.323  -1.208  31.367  0.00  0.00    +0.011 C 
ATOM     16  C   UNL     1      -8.636  -1.619  31.140  0.00  0.00    +0.001 C 
ATOM     17  C   UNL     1      -9.641  -0.678  31.062  0.00  0.00    +0.000 C 
ATOM     18  C   UNL     1      -9.345   0.657  31.208  0.00  0.00    +0.001 C 
ATOM     19  C   UNL     1      -8.035   1.028  31.430  0.00  0.00    +0.015 C 
ATOM     20  C   UNL     1      -4.988   1.420  31.986  0.00  0.00    +0.311 C 
ATOM     21  O   UNL     1      -3.732   1.474  32.212  0.00  0.00    -0.264 OA
ENDBRANCH  10  11
BRANCH   1  22
ATOM     22  C   UNL     1      -4.068  -4.173  29.881  0.00  0.00    +0.008 C 
ATOM     23  C   UNL     1      -2.879  -5.089  29.953  0.00  0.00    +0.065 C 
ATOM     24  C   UNL     1      -1.716  -4.262  29.674  0.00  0.00    +0.151 C 
ATOM     25  O   UNL     1      -0.491  -4.492  29.957  0.00  0.00    -0.296 OA
ATOM     26  C   UNL     1      -2.225  -3.080  28.986  0.00  0.00    +0.065 C 
ATOM     27  C   UNL     1      -3.544  -3.014  29.091  0.00  0.00    +0.008 C 
ENDBRANCH   1  22
TORSDOF 2
