REMARK  Name = =
REMARK  5 active torsions:
REMARK  status: ('A' for Active; 'I' for Inactive)
REMARK    1  A    between atoms: C_1  and  O_17
REMARK    2  A    between atoms: C_2  and  O_18
REMARK    3  A    between atoms: C_4  and  C_7
REMARK    4  A    between atoms: O_18  and  S_19
REMARK    5  A    between atoms: S_19  and  C_20
REMARK                            x       y       z     vdW  Elec       q    Type
REMARK                         _______ _______ _______ _____ _____    ______ ____
ROOT
ATOM      1  C   UNL     1      -0.886  -2.919  27.474  0.00  0.00    +0.204 C 
ATOM      2  C   UNL     1      -0.325  -3.893  28.262  0.00  0.00    +0.192 C 
ATOM      3  C   UNL     1      -0.954  -4.251  29.465  0.00  0.00    +0.046 C 
ATOM      4  C   UNL     1      -2.108  -3.692  29.920  0.00  0.00    +0.057 C 
ATOM      5  C   UNL     1      -2.642  -2.695  29.069  0.00  0.00    +0.008 C 
ATOM      6  C   UNL     1      -2.043  -2.332  27.893  0.00  0.00    +0.043 C 
ENDROOT
BRANCH   4   7
ATOM      7  C   UNL     1      -2.854  -4.036  31.104  0.00  0.00    +0.255 C 
ATOM      8  N   UNL     1      -3.041  -5.289  31.744  0.00  0.00    -0.226 N 
ATOM      9  C   UNL     1      -2.533  -6.497  31.231  0.00  0.00    +0.101 C 
ATOM     10  C   UNL     1      -3.192  -7.776  31.703  0.00  0.00    +0.022 C 
ATOM     11  C   UNL     1      -3.623  -7.769  33.133  0.00  0.00    +0.011 C 
ATOM     12  C   UNL     1      -4.398  -6.511  33.473  0.00  0.00    +0.086 C 
ATOM     13  C   UNL     1      -3.761  -5.300  32.986  0.00  0.00    +0.232 C 
ATOM     14  O   UNL     1      -3.832  -4.234  33.654  0.00  0.00    -0.274 OA
ATOM     15  O   UNL     1      -3.450  -3.007  31.662  0.00  0.00    -0.269 OA
ENDBRANCH   4   7
BRANCH   1  17
ATOM     16  N   UNL     1      -0.974  -1.811  25.367  0.00  0.00    +0.111 NA
ATOM     17  O   UNL     1      -0.283  -2.550  26.283  0.00  0.00    -0.362 OA
ENDBRANCH   1  17
BRANCH   2  18
ATOM     18  O   UNL     1       0.835  -4.485  27.847  0.00  0.00    -0.412 OA
BRANCH  18  19
ATOM     19  S   UNL     1       2.401  -3.850  28.307  0.00  0.00    +0.136 S 
BRANCH  19  20
ATOM     20  C   UNL     1       2.856  -2.596  27.114  0.00  0.00    +0.246 A 
ATOM     21  N   UNL     1       2.481  -1.306  27.137  0.00  0.00    -0.231 N 
ATOM     22  N   UNL     1       3.010  -0.686  26.097  0.00  0.00    -0.046 NA
ATOM     23  N   UNL     1       3.713  -1.583  25.425  0.00  0.00    -0.022 NA
ATOM     24  N   UNL     1       3.634  -2.750  26.025  0.00  0.00    -0.098 NA
ATOM     25  H   UNL     1       1.905  -0.890  27.819  0.00  0.00    +0.193 HD
ENDBRANCH  19  20
ENDBRANCH  18  19
ENDBRANCH   2  18
TORSDOF 5
