REMARK  Name = =
REMARK  3 active torsions:
REMARK  status: ('A' for Active; 'I' for Inactive)
REMARK    1  A    between atoms: C_1  and  C_22
REMARK    2  A    between atoms: C_8  and  C_28
REMARK    3  A    between atoms: C_10  and  C_11
REMARK                            x       y       z     vdW  Elec       q    Type
REMARK                         _______ _______ _______ _____ _____    ______ ____
ROOT
ATOM      1  C   UNL     1       3.497  -3.583  22.166  0.00  0.00    +0.005 C 
ATOM      2  C   UNL     1       4.456  -2.876  23.060  0.00  0.00    +0.001 C 
ATOM      3  C   UNL     1       5.214  -3.755  23.976  0.00  0.00    +0.000 C 
ATOM      4  C   UNL     1       6.437  -3.072  24.443  0.00  0.00    +0.000 C 
ATOM      5  C   UNL     1       6.281  -1.686  24.969  0.00  0.00    +0.000 C 
ATOM      6  C   UNL     1       5.240  -0.860  24.336  0.00  0.00    +0.000 C 
ATOM      7  C   UNL     1       4.223  -1.542  23.513  0.00  0.00    +0.009 C 
ATOM      8  C   UNL     1       2.806  -1.218  23.900  0.00  0.00    +0.077 C 
ATOM      9  C   UNL     1       1.847  -2.173  23.376  0.00  0.00    +0.013 C 
ATOM     10  C   UNL     1       2.114  -2.919  22.096  0.00  0.00    +0.024 C 
ENDROOT
BRANCH  10  11
ATOM     11  C   UNL     1       1.939  -2.085  20.868  0.00  0.00    -0.006 C 
ATOM     12  C   UNL     1       1.482  -2.466  19.630  0.00  0.00    +0.068 C 
ATOM     13  N   UNL     1       1.329  -1.414  18.792  0.00  0.00    -0.229 N 
ATOM     14  C   UNL     1       1.689  -0.322  19.487  0.00  0.00    +0.058 C 
ATOM     15  C   UNL     1       2.070  -0.686  20.759  0.00  0.00    +0.011 C 
ATOM     16  C   UNL     1       2.515   0.284  21.630  0.00  0.00    +0.001 C 
ATOM     17  C   UNL     1       2.564   1.595  21.218  0.00  0.00    +0.000 C 
ATOM     18  C   UNL     1       2.178   1.962  19.953  0.00  0.00    +0.001 C 
ATOM     19  C   UNL     1       1.739   0.995  19.080  0.00  0.00    +0.015 C 
ATOM     20  C   UNL     1       0.879  -1.501  17.449  0.00  0.00    +0.311 C 
ATOM     21  O   UNL     1       0.558  -2.535  16.860  0.00  0.00    -0.264 OA
ENDBRANCH  10  11
BRANCH   1  22
ATOM     22  C   UNL     1       4.170  -3.602  20.814  0.00  0.00    +0.008 C 
ATOM     23  C   UNL     1       4.434  -4.939  20.242  0.00  0.00    +0.065 C 
ATOM     24  C   UNL     1       5.931  -5.088  20.389  0.00  0.00    +0.151 C 
ATOM     25  O   UNL     1       6.461  -6.210  20.249  0.00  0.00    -0.296 OA
ATOM     26  C   UNL     1       6.450  -3.778  20.687  0.00  0.00    +0.065 C 
ATOM     27  C   UNL     1       5.483  -2.924  20.932  0.00  0.00    +0.008 C 
ENDBRANCH   1  22
BRANCH   8  28
ATOM     28  C   UNL     1       2.620  -1.056  25.367  0.00  0.00    +0.228 C 
ATOM     29  O   UNL     1       2.317   0.090  25.810  0.00  0.00    -0.275 OA
ATOM     30  N   UNL     1       2.759  -2.076  26.331  0.00  0.00    -0.248 N 
ATOM     31  C   UNL     1       2.596  -1.797  27.744  0.00  0.00    +0.306 C 
ATOM     32  O   UNL     1       2.321  -0.635  28.109  0.00  0.00    -0.265 OA
ATOM     33  H   UNL     1       2.970  -2.992  26.039  0.00  0.00    +0.158 HD
ENDBRANCH   8  28
TORSDOF 3
