REMARK  Name = =
REMARK  4 active torsions:
REMARK  status: ('A' for Active; 'I' for Inactive)
REMARK    1  A    between atoms: C_1  and  C_31
REMARK    2  A    between atoms: C_8  and  C_37
REMARK    3  A    between atoms: C_10  and  C_11
REMARK    4  A    between atoms: C_10  and  C_20
REMARK                            x       y       z     vdW  Elec       q    Type
REMARK                         _______ _______ _______ _____ _____    ______ ____
ROOT
ATOM      1  C   UNL     1       4.849  -5.061  23.853  0.00  0.00    +0.012 C 
ATOM      2  C   UNL     1       4.885  -5.544  25.246  0.00  0.00    +0.001 C 
ATOM      3  C   UNL     1       6.271  -5.606  25.840  0.00  0.00    +0.000 C 
ATOM      4  C   UNL     1       6.614  -7.029  26.306  0.00  0.00    +0.000 C 
ATOM      5  C   UNL     1       5.608  -7.516  27.325  0.00  0.00    +0.000 C 
ATOM      6  C   UNL     1       4.222  -7.250  26.841  0.00  0.00    +0.000 C 
ATOM      7  C   UNL     1       4.286  -6.923  25.355  0.00  0.00    +0.009 C 
ATOM      8  C   UNL     1       2.855  -6.728  24.897  0.00  0.00    +0.078 C 
ATOM      9  C   UNL     1       2.746  -6.409  23.459  0.00  0.00    +0.017 C 
ATOM     10  C   UNL     1       3.926  -5.688  22.860  0.00  0.00    +0.040 C 
ENDROOT
BRANCH  10  11
ATOM     11  C   UNL     1       3.322  -4.769  21.880  0.00  0.00    -0.018 C 
ATOM     12  C   UNL     1       3.659  -4.625  20.568  0.00  0.00    +0.012 C 
ATOM     13  C   UNL     1       3.041  -3.744  19.691  0.00  0.00    +0.059 C 
ATOM     14  N   UNL     1       3.243  -3.448  18.311  0.00  0.00    -0.315 N 
ATOM     15  C   UNL     1       2.084  -2.722  17.836  0.00  0.00    +0.182 C 
ATOM     16  N   UNL     1       1.571  -2.159  19.069  0.00  0.00    -0.315 N 
ATOM     17  C   UNL     1       2.020  -2.967  20.178  0.00  0.00    +0.059 C 
ATOM     18  C   UNL     1       1.640  -3.076  21.488  0.00  0.00    +0.015 C 
ATOM     19  C   UNL     1       2.285  -3.965  22.317  0.00  0.00    -0.003 C 
ATOM     20  H   UNL     1       4.032  -3.694  17.775  0.00  0.00    +0.148 HD
ATOM     21  H   UNL     1       1.007  -1.355  19.139  0.00  0.00    +0.148 HD
ENDBRANCH  10  11
BRANCH  10  22
ATOM     22  C   UNL     1       4.746  -6.712  22.123  0.00  0.00    -0.003 C 
ATOM     23  C   UNL     1       6.104  -6.747  21.921  0.00  0.00    +0.068 C 
ATOM     24  N   UNL     1       6.456  -7.854  21.225  0.00  0.00    -0.229 N 
ATOM     25  C   UNL     1       5.347  -8.573  20.951  0.00  0.00    +0.058 C 
ATOM     26  C   UNL     1       4.284  -7.866  21.507  0.00  0.00    +0.012 C 
ATOM     27  C   UNL     1       3.042  -8.444  21.308  0.00  0.00    +0.001 C 
ATOM     28  C   UNL     1       2.841  -9.620  20.623  0.00  0.00    +0.000 C 
ATOM     29  C   UNL     1       3.907 -10.285  20.093  0.00  0.00    +0.001 C 
ATOM     30  C   UNL     1       5.157  -9.759  20.259  0.00  0.00    +0.015 C 
ATOM     31  C   UNL     1       7.771  -8.241  20.823  0.00  0.00    +0.311 C 
ATOM     32  O   UNL     1       8.746  -7.505  21.125  0.00  0.00    -0.264 OA
ENDBRANCH  10  22
BRANCH   1  33
ATOM     33  C   UNL     1       5.046  -3.581  23.822  0.00  0.00    +0.030 C 
ATOM     34  C   UNL     1       4.884  -2.852  25.105  0.00  0.00    +0.073 C 
ATOM     35  C   UNL     1       6.189  -2.179  25.378  0.00  0.00    +0.173 C 
ATOM     36  O   UNL     1       6.519  -1.539  26.386  0.00  0.00    -0.291 OA
ATOM     37  C   UNL     1       7.022  -2.418  24.216  0.00  0.00    +0.033 C 
ATOM     38  C   UNL     1       6.415  -3.181  23.355  0.00  0.00    -0.023 C 
ENDBRANCH   1  33
BRANCH   8  39
ATOM     39  C   UNL     1       2.037  -7.864  25.362  0.00  0.00    +0.228 C 
ATOM     40  O   UNL     1       1.150  -7.676  26.270  0.00  0.00    -0.275 OA
ATOM     41  N   UNL     1       2.170  -9.187  24.855  0.00  0.00    -0.248 N 
ATOM     42  C   UNL     1       1.333 -10.224  25.352  0.00  0.00    +0.306 C 
ATOM     43  O   UNL     1       0.485  -9.963  26.234  0.00  0.00    -0.265 OA
ATOM     44  H   UNL     1       2.840  -9.384  24.161  0.00  0.00    +0.158 HD
ENDBRANCH   8  39
TORSDOF 4
