REMARK  Name = =
REMARK  6 active torsions:
REMARK  status: ('A' for Active; 'I' for Inactive)
REMARK    1  A    between atoms: C_1  and  O_17
REMARK    2  A    between atoms: C_2  and  O_18
REMARK    3  A    between atoms: C_4  and  C_7
REMARK    4  A    between atoms: O_18  and  S_19
REMARK    5  A    between atoms: S_19  and  N_20
REMARK    6  A    between atoms: S_19  and  C_26
REMARK                            x       y       z     vdW  Elec       q    Type
REMARK                         _______ _______ _______ _____ _____    ______ ____
ROOT
ATOM      1  C   UNL     1      -0.759  -2.173  27.831  0.00  0.00    +0.204 C 
ATOM      2  C   UNL     1       0.091  -3.229  28.169  0.00  0.00    +0.191 C 
ATOM      3  C   UNL     1      -0.421  -4.328  28.817  0.00  0.00    +0.046 C 
ATOM      4  C   UNL     1      -1.765  -4.457  29.170  0.00  0.00    +0.057 C 
ATOM      5  C   UNL     1      -2.578  -3.405  28.829  0.00  0.00    +0.008 C 
ATOM      6  C   UNL     1      -2.094  -2.292  28.177  0.00  0.00    +0.043 C 
ENDROOT
BRANCH   4   7
ATOM      7  C   UNL     1      -2.187  -5.619  29.896  0.00  0.00    +0.255 C 
ATOM      8  N   UNL     1      -3.138  -5.771  30.902  0.00  0.00    -0.226 N 
ATOM      9  C   UNL     1      -3.305  -7.074  31.606  0.00  0.00    +0.101 C 
ATOM     10  C   UNL     1      -4.112  -6.871  32.858  0.00  0.00    +0.022 C 
ATOM     11  C   UNL     1      -3.834  -5.552  33.528  0.00  0.00    +0.011 C 
ATOM     12  C   UNL     1      -4.136  -4.349  32.692  0.00  0.00    +0.086 C 
ATOM     13  C   UNL     1      -4.050  -4.759  31.268  0.00  0.00    +0.232 C 
ATOM     14  O   UNL     1      -4.774  -4.235  30.346  0.00  0.00    -0.274 OA
ATOM     15  O   UNL     1      -1.591  -6.728  29.570  0.00  0.00    -0.269 OA
ENDBRANCH   4   7
BRANCH   1  17
ATOM     16  N   UNL     1      -0.064  -1.012  25.856  0.00  0.00    +0.111 NA
ATOM     17  O   UNL     1      -0.328  -1.058  27.183  0.00  0.00    -0.362 OA
ENDBRANCH   1  17
BRANCH   2  18
ATOM     18  O   UNL     1       1.431  -3.115  27.833  0.00  0.00    -0.422 OA
BRANCH  18  19
ATOM     19  S   UNL     1       2.053  -3.748  26.337  0.00  0.00    +0.037 S 
ATOM     20  H   UNL     1       1.265  -3.529  25.251  0.00  0.00    +0.150 HD
BRANCH  19  21
ATOM     21  N   UNL     1       3.604  -3.132  26.128  0.00  0.00    -0.219 N 
ATOM     22  C   UNL     1       4.358  -2.251  26.961  0.00  0.00    +0.108 C 
ATOM     23  C   UNL     1       5.814  -2.458  26.604  0.00  0.00    +0.032 C 
ATOM     24  C   UNL     1       5.830  -3.283  25.368  0.00  0.00    +0.088 C 
ATOM     25  C   UNL     1       4.411  -3.445  24.992  0.00  0.00    +0.236 C 
ATOM     26  O   UNL     1       4.017  -3.804  23.840  0.00  0.00    -0.274 OA
ENDBRANCH  19  21
BRANCH  19  27
ATOM     27  C   UNL     1       2.381  -5.427  26.865  0.00  0.00    +0.235 A 
ATOM     28  N   UNL     1       3.285  -5.831  27.762  0.00  0.00    -0.232 N 
ATOM     29  N   UNL     1       3.215  -7.146  27.869  0.00  0.00    -0.046 NA
ATOM     30  N   UNL     1       2.254  -7.546  27.025  0.00  0.00    -0.022 NA
ATOM     31  N   UNL     1       1.749  -6.509  26.418  0.00  0.00    -0.099 NA
ATOM     32  H   UNL     1       3.901  -5.246  28.260  0.00  0.00    +0.193 HD
ENDBRANCH  19  27
ENDBRANCH  18  19
ENDBRANCH   2  18
TORSDOF 6
