REMARK  Name = =
REMARK  10 active torsions:
REMARK  status: ('A' for Active; 'I' for Inactive)
REMARK    1  A    between atoms: C_1  and  O_16
REMARK    2  A    between atoms: C_2  and  O_26
REMARK    3  A    between atoms: C_4  and  C_7
REMARK    4  A    between atoms: O_16  and  N_17
REMARK    5  A    between atoms: N_17  and  C_18
REMARK    6  A    between atoms: C_20  and  O_25
REMARK    7  A    between atoms: C_23  and  O_24
REMARK    8  A    between atoms: O_26  and  S_27
REMARK    9  A    between atoms: S_27  and  N_29
REMARK   10  A    between atoms: S_27  and  C_35
REMARK                            x       y       z     vdW  Elec       q    Type
REMARK                         _______ _______ _______ _____ _____    ______ ____
ROOT
ATOM      1  C   UNL     1       1.588  -3.900  29.114  0.00  0.00    +0.210 C 
ATOM      2  C   UNL     1       1.989  -5.191  28.844  0.00  0.00    +0.193 C 
ATOM      3  C   UNL     1       1.152  -6.261  28.955  0.00  0.00    +0.046 C 
ATOM      4  C   UNL     1      -0.181  -6.105  29.355  0.00  0.00    +0.057 C 
ATOM      5  C   UNL     1      -0.582  -4.833  29.622  0.00  0.00    +0.008 C 
ATOM      6  C   UNL     1       0.280  -3.728  29.508  0.00  0.00    +0.044 C 
ENDROOT
BRANCH   4   7
ATOM      7  C   UNL     1      -0.985  -7.308  29.534  0.00  0.00    +0.255 C 
ATOM      8  N   UNL     1      -1.838  -7.543  30.598  0.00  0.00    -0.226 N 
ATOM      9  C   UNL     1      -2.428  -8.913  30.712  0.00  0.00    +0.101 C 
ATOM     10  C   UNL     1      -2.378  -9.308  32.166  0.00  0.00    +0.022 C 
ATOM     11  C   UNL     1      -1.652  -8.347  33.040  0.00  0.00    +0.011 C 
ATOM     12  C   UNL     1      -2.290  -6.956  32.971  0.00  0.00    +0.086 C 
ATOM     13  C   UNL     1      -2.275  -6.582  31.547  0.00  0.00    +0.232 C 
ATOM     14  O   UNL     1      -2.638  -5.459  31.168  0.00  0.00    -0.274 OA
ATOM     15  O   UNL     1      -0.887  -8.227  28.626  0.00  0.00    -0.269 OA
ENDBRANCH   4   7
BRANCH   1  16
ATOM     16  O   UNL     1       2.423  -2.814  29.011  0.00  0.00    -0.350 OA
BRANCH  16  17
ATOM     17  N   UNL     1       2.293  -1.973  27.930  0.00  0.00    -0.074 NA
BRANCH  17  18
ATOM     18  C   UNL     1       0.930  -1.771  27.597  0.00  0.00    +0.156 C 
ATOM     19  C   UNL     1       0.062  -1.075  28.430  0.00  0.00    +0.062 C 
ATOM     20  C   UNL     1      -1.260  -0.885  28.107  0.00  0.00    +0.135 C 
ATOM     21  C   UNL     1      -1.760  -1.393  26.919  0.00  0.00    +0.040 C 
ATOM     22  C   UNL     1      -0.916  -2.087  26.076  0.00  0.00    +0.041 C 
ATOM     23  C   UNL     1       0.434  -2.272  26.424  0.00  0.00    +0.155 C 
BRANCH  23  24
ATOM     24  O   UNL     1       1.216  -2.980  25.523  0.00  0.00    -0.504 OA
ATOM     25  H   UNL     1       0.838  -3.307  24.730  0.00  0.00    +0.292 HD
ENDBRANCH  23  24
BRANCH  20  26
ATOM     26  O   UNL     1      -2.137  -0.187  28.942  0.00  0.00    -0.505 OA
ATOM     27  H   UNL     1      -1.829   0.169  29.752  0.00  0.00    +0.292 HD
ENDBRANCH  20  26
ENDBRANCH  17  18
ENDBRANCH  16  17
ENDBRANCH   1  16
BRANCH   2  28
ATOM     28  O   UNL     1       3.317  -5.434  28.435  0.00  0.00    -0.406 OA
BRANCH  28  29
ATOM     29  S   UNL     1       4.129  -5.745  27.433  0.00  0.00    +0.137 S 
BRANCH  29  30
ATOM     30  N   UNL     1       3.711  -5.291  25.796  0.00  0.00    -0.206 N 
ATOM     31  C   UNL     1       2.914  -6.007  24.844  0.00  0.00    +0.109 C 
ATOM     32  C   UNL     1       3.631  -5.751  23.536  0.00  0.00    +0.032 C 
ATOM     33  C   UNL     1       4.035  -4.301  23.655  0.00  0.00    +0.088 C 
ATOM     34  C   UNL     1       4.126  -4.105  25.124  0.00  0.00    +0.237 C 
ATOM     35  O   UNL     1       4.512  -3.047  25.665  0.00  0.00    -0.274 OA
ENDBRANCH  29  30
BRANCH  29  36
ATOM     36  C   UNL     1       5.194  -7.073  27.302  0.00  0.00    +0.251 A 
ATOM     37  N   UNL     1       5.227  -8.225  27.990  0.00  0.00    -0.231 N 
ATOM     38  N   UNL     1       6.227  -8.971  27.562  0.00  0.00    -0.046 NA
ATOM     39  N   UNL     1       6.828  -8.306  26.608  0.00  0.00    -0.022 NA
ATOM     40  N   UNL     1       6.217  -7.163  26.442  0.00  0.00    -0.098 NA
ATOM     41  H   UNL     1       4.599  -8.475  28.706  0.00  0.00    +0.193 HD
ENDBRANCH  29  36
ENDBRANCH  28  29
ENDBRANCH   2  28
TORSDOF 10
REMARK  Name = =
REMARK  10 active torsions:
REMARK  status: ('A' for Active; 'I' for Inactive)
REMARK    1  A    between atoms: C_1  and  O_16
REMARK    2  A    between atoms: C_2  and  O_26
REMARK    3  A    between atoms: C_4  and  C_7
REMARK    4  A    between atoms: O_16  and  N_17
REMARK    5  A    between atoms: N_17  and  C_18
REMARK    6  A    between atoms: C_20  and  O_25
REMARK    7  A    between atoms: C_23  and  O_24
REMARK    8  A    between atoms: O_26  and  S_27
REMARK    9  A    between atoms: S_27  and  N_29
REMARK   10  A    between atoms: S_27  and  C_35
REMARK                            x       y       z     vdW  Elec       q    Type
REMARK                         _______ _______ _______ _____ _____    ______ ____
ROOT
ATOM      1  H   UNK     1       2.589  -7.252  26.947  0.00  0.00    +0.000 HD
ENDROOT
TORSDOF 0
