REMARK  Name = =
REMARK  8 active torsions:
REMARK  status: ('A' for Active; 'I' for Inactive)
REMARK    1  A    between atoms: C_6  and  N_25
REMARK    2  A    between atoms: N_8  and  C_19
REMARK    3  A    between atoms: N_14  and  C_21
REMARK    4  A    between atoms: N_25  and  N_26
REMARK    5  A    between atoms: N_25  and  O_27
REMARK    6  A    between atoms: O_27  and  C_28
REMARK    7  A    between atoms: C_32  and  C_36
REMARK    8  A    between atoms: C_33  and  O_35
REMARK                            x       y       z     vdW  Elec       q    Type
REMARK                         _______ _______ _______ _____ _____    ______ ____
ROOT
ATOM      1  O   UNL     1     -17.674 -42.830  26.345  0.00  0.00    -0.365 OA
ENDROOT
BRANCH   1   2
ATOM      2  C   UNL     1     -18.349 -42.008  25.446  0.00  0.00    +0.163 C 
ATOM      3  C   UNL     1     -19.408 -41.361  25.881  0.00  0.00    +0.078 C 
ATOM      4  C   UNL     1     -20.144 -40.501  25.006  0.00  0.00    +0.204 C 
ATOM      5  O   UNL     1     -21.170 -39.859  25.383  0.00  0.00    -0.286 OA
ATOM      6  C   UNL     1     -19.723 -40.332  23.622  0.00  0.00    +0.111 C 
ATOM      7  C   UNL     1     -18.662 -40.984  23.206  0.00  0.00    +0.125 C 
ATOM      8  C   UNL     1     -17.862 -41.887  24.063  0.00  0.00    +0.131 C 
BRANCH   7   9
ATOM      9  O   UNL     1     -18.309 -40.776  21.856  0.00  0.00    -0.509 OA
ATOM     10  H   UNL     1     -18.821 -40.202  21.321  0.00  0.00    +0.292 HD
ENDBRANCH   7   9
BRANCH   6  11
ATOM     11  C   UNL     1     -20.481 -39.451  22.714  0.00  0.00    +0.240 C 
ATOM     12  O   UNL     1     -21.591 -39.021  23.088  0.00  0.00    -0.283 OA
ENDBRANCH   6  11
ENDBRANCH   1   2
BRANCH   1  13
ATOM     13  N   UNL     1     -16.490 -42.480  26.937  0.00  0.00    -0.139 N 
BRANCH  13  19
ATOM     14  C   UNL     1     -14.064 -42.796  26.637  0.00  0.00    +0.022 C 
ATOM     15  C   UNL     1     -12.928 -42.681  25.861  0.00  0.00    +0.002 C 
ATOM     16  C   UNL     1     -13.010 -42.162  24.595  0.00  0.00    +0.000 C 
ATOM     17  C   UNL     1     -14.237 -41.754  24.102  0.00  0.00    +0.002 C 
ATOM     18  C   UNL     1     -15.368 -41.870  24.880  0.00  0.00    +0.022 C 
ATOM     19  C   UNL     1     -15.302 -42.394  26.165  0.00  0.00    +0.111 C 
ENDBRANCH  13  19
BRANCH  13  20
ATOM     20  N   UNL     1     -16.431 -42.185  28.299  0.00  0.00    -0.213 NA
ATOM     21  H   UNL     1     -15.472 -41.948  28.554  0.00  0.00    +0.146 HD
ATOM     22  H   UNL     1     -16.735 -42.997  28.836  0.00  0.00    +0.146 HD
ENDBRANCH  13  20
ENDBRANCH   1  13
TORSDOF 6
REMARK  Name = =
REMARK  8 active torsions:
REMARK  status: ('A' for Active; 'I' for Inactive)
REMARK    1  A    between atoms: C_6  and  N_25
REMARK    2  A    between atoms: N_8  and  C_19
REMARK    3  A    between atoms: N_14  and  C_21
REMARK    4  A    between atoms: N_25  and  N_26
REMARK    5  A    between atoms: N_25  and  O_27
REMARK    6  A    between atoms: O_27  and  C_28
REMARK    7  A    between atoms: C_32  and  C_36
REMARK    8  A    between atoms: C_33  and  O_35
REMARK                            x       y       z     vdW  Elec       q    Type
REMARK                         _______ _______ _______ _____ _____    ______ ____
ROOT
ATOM      1  I   UNL     1     -13.872 -43.629  28.551  0.00  0.00    -0.107 I 
ATOM      2  H   UNL     1     -12.311 -43.629  28.551  0.00  0.00    +0.107 HD
ENDROOT
TORSDOF 0
REMARK  Name = =
REMARK  8 active torsions:
REMARK  status: ('A' for Active; 'I' for Inactive)
REMARK    1  A    between atoms: C_6  and  N_25
REMARK    2  A    between atoms: N_8  and  C_19
REMARK    3  A    between atoms: N_14  and  C_21
REMARK    4  A    between atoms: N_25  and  N_26
REMARK    5  A    between atoms: N_25  and  O_27
REMARK    6  A    between atoms: O_27  and  C_28
REMARK    7  A    between atoms: C_32  and  C_36
REMARK    8  A    between atoms: C_33  and  O_35
REMARK                            x       y       z     vdW  Elec       q    Type
REMARK                         _______ _______ _______ _____ _____    ______ ____
ROOT
ATOM      1  N   UNL     1      -9.100 -44.172  31.911  0.00  0.00    -0.233 NA
ATOM      2  C   UNL     1      -8.021 -44.923  32.440  0.00  0.00    +0.108 C 
ATOM      3  C   UNL     1      -6.977 -45.198  31.348  0.00  0.00    +0.160 C 
ATOM      4  O   UNL     1      -7.723 -45.691  30.269  0.00  0.00    -0.349 OA
ATOM      5  C   UNL     1      -8.309 -44.574  29.675  0.00  0.00    +0.175 C 
ATOM      6  C   UNL     1      -8.826 -43.561  30.668  0.00  0.00    +0.151 C 
ENDROOT
BRANCH   6   7
ATOM      7  N   UNL     1      -9.942 -42.817  30.118  0.00  0.00    -0.255 NA
ATOM      8  C   UNL     1     -11.055 -43.629  29.726  0.00  0.00    +0.106 C 
ATOM      9  C   UNL     1     -12.205 -42.649  29.433  0.00  0.00    +0.160 C 
ATOM     10  O   UNL     1     -11.795 -41.549  28.722  0.00  0.00    -0.351 OA
ATOM     11  C   UNL     1     -10.618 -41.704  28.032  0.00  0.00    +0.160 C 
ATOM     12  C   UNL     1      -9.463 -42.165  28.897  0.00  0.00    +0.106 C 
ENDBRANCH   6   7
BRANCH   1  14
ATOM     13  O   UNL     1     -11.211 -43.387  32.792  0.00  0.00    -0.314 OA
ATOM     14  C   UNL     1      -9.800 -43.433  32.890  0.00  0.00    +0.199 C 
ATOM     15  C   UNL     1      -9.889 -41.926  32.720  0.00  0.00    +0.111 C 
ATOM     16  C   UNL     1     -11.151 -42.174  33.461  0.00  0.00    +0.260 C 
ATOM     17  O   UNL     1     -11.826 -41.552  34.301  0.00  0.00    -0.191 OA
ENDBRANCH   1  14
TORSDOF 2
