REMARK  Name = =
REMARK  6 active torsions:
REMARK  status: ('A' for Active; 'I' for Inactive)
REMARK    1  A    between atoms: C_1  and  N_24
REMARK    2  A    between atoms: C_13  and  C_17
REMARK    3  A    between atoms: N_24  and  N_25
REMARK    4  A    between atoms: N_25  and  P_26
REMARK    5  A    between atoms: P_26  and  N_28
REMARK    6  A    between atoms: P_26  and  O_29
REMARK                            x       y       z     vdW  Elec       q    Type
REMARK                         _______ _______ _______ _____ _____    ______ ____
ROOT
ATOM      1  C   UNL     1      58.784 160.734  40.385  0.00  0.00    +0.062 C 
ATOM      2  C   UNL     1      58.406 159.741  39.551  0.00  0.00    +0.016 C 
ATOM      3  C   UNL     1      58.559 159.821  38.176  0.00  0.00    +0.001 C 
ATOM      4  C   UNL     1      59.124 160.976  37.703  0.00  0.00    +0.003 C 
ATOM      5  C   UNL     1      59.525 162.001  38.511  0.00  0.00    +0.043 C 
ATOM      6  C   UNL     1      59.360 161.886  39.866  0.00  0.00    +0.056 C 
ATOM      7  C   UNL     1      59.757 163.039  40.699  0.00  0.00    +0.197 C 
ATOM      8  O   UNL     1      59.631 162.978  41.967  0.00  0.00    -0.287 OA
ATOM      9  C   UNL     1      60.290 164.263  40.134  0.00  0.00    +0.042 C 
ATOM     10  C   UNL     1      60.517 165.375  40.927  0.00  0.00    +0.003 C 
ATOM     11  C   UNL     1      60.877 166.536  40.384  0.00  0.00    -0.000 C 
ATOM     12  C   UNL     1      61.021 166.649  39.020  0.00  0.00    -0.004 C 
ATOM     13  C   UNL     1      60.818 165.567  38.122  0.00  0.00    -0.017 C 
ATOM     14  C   UNL     1      60.455 164.389  38.745  0.00  0.00    +0.038 C 
ATOM     15  C   UNL     1      60.081 163.266  37.910  0.00  0.00    +0.195 C 
ATOM     16  O   UNL     1      60.215 163.339  36.688  0.00  0.00    -0.287 OA
ENDROOT
BRANCH  13  17
ATOM     17  C   UNL     1      61.056 165.654  36.724  0.00  0.00    +0.052 C 
ATOM     18  C   UNL     1      59.912 166.022  35.814  0.00  0.00    +0.036 C 
ATOM     19  C   UNL     1      60.654 166.089  34.498  0.00  0.00    +0.116 C 
ATOM     20  O   UNL     1      61.501 164.976  34.571  0.00  0.00    -0.358 OA
ATOM     21  C   UNL     1      62.145 165.261  35.841  0.00  0.00    +0.119 C 
ATOM     22  C   UNL     1      62.948 166.442  35.224  0.00  0.00    +0.032 C 
ATOM     23  C   UNL     1      61.746 167.175  34.558  0.00  0.00    +0.032 C 
ENDBRANCH  13  17
BRANCH   1  24
ATOM     24  N   UNL     1      58.474 160.667  41.776  0.00  0.00    -0.271 N 
ATOM     25  H   UNL     1      58.941 160.021  42.354  0.00  0.00    +0.167 HD
BRANCH  24  26
ATOM     26  N   UNL     1      57.508 161.519  42.318  0.00  0.00    -0.155 NA
ATOM     27  H   UNL     1      57.625 162.433  41.880  0.00  0.00    +0.155 HD
BRANCH  26  28
ATOM     28  P   UNL     1      55.877 161.067  42.132  0.00  0.00    +0.354 P 
ATOM     29  O   UNL     1      55.548 159.902  43.034  0.00  0.00    -0.253 OA
BRANCH  28  30
ATOM     30  N   UNL     1      54.851 162.408  42.701  0.00  0.00    -0.246 NA
ATOM     31  H   UNL     1      55.127 162.669  43.648  0.00  0.00    +0.129 HD
ATOM     32  H   UNL     1      53.875 162.113  42.701  0.00  0.00    +0.129 HD
ENDBRANCH  28  30
BRANCH  28  33
ATOM     33  O   UNL     1      55.415 160.639  40.563  0.00  0.00    -0.321 OA
ATOM     34  H   UNL     1      55.614 161.370  39.957  0.00  0.00    +0.220 HD
ENDBRANCH  28  33
ENDBRANCH  26  28
ENDBRANCH  24  26
ENDBRANCH   1  24
TORSDOF 6
