REMARK  Name = =
REMARK  7 active torsions:
REMARK  status: ('A' for Active; 'I' for Inactive)
REMARK    1  A    between atoms: C_1  and  C_12
REMARK    2  A    between atoms: C_2  and  O_22
REMARK    3  A    between atoms: O_22  and  O_24
REMARK    4  A    between atoms: P_23  and  O_25
REMARK    5  A    between atoms: O_24  and  O_26
REMARK    6  A    between atoms: C_27  and  O_29
REMARK    7  A    between atoms: O_29  and  C_30
REMARK                            x       y       z     vdW  Elec       q    Type
REMARK                         _______ _______ _______ _____ _____    ______ ____
ROOT
ATOM      1  C   UNL     1     -13.674 -42.355  27.113  0.00  0.00    +0.056 C 
ATOM      2  C   UNL     1     -14.719 -42.610  27.948  0.00  0.00    +0.190 C 
ATOM      3  C   UNL     1     -16.038 -42.609  27.466  0.00  0.00    +0.079 C 
ATOM      4  C   UNL     1     -16.313 -42.355  26.143  0.00  0.00    +0.152 C 
ATOM      5  C   UNL     1     -15.270 -42.098  25.292  0.00  0.00    +0.035 C 
ATOM      6  C   UNL     1     -13.959 -42.100  25.780  0.00  0.00    +0.008 C 
ATOM      7  C   UNL     1     -15.467 -41.839  23.971  0.00  0.00    +0.010 C 
ATOM      8  C   UNL     1     -16.769 -41.833  23.469  0.00  0.00    +0.082 C 
ATOM      9  C   UNL     1     -17.767 -42.097  24.375  0.00  0.00    +0.346 C 
ATOM     10  O   UNL     1     -18.972 -42.103  23.972  0.00  0.00    -0.244 OA
ATOM     11  O   UNL     1     -17.535 -42.345  25.658  0.00  0.00    -0.421 OA
ENDROOT
BRANCH   1  12
ATOM     12  C   UNL     1     -12.319 -42.349  27.653  0.00  0.00    +0.084 C 
ATOM     13  N   UNL     1     -12.073 -42.430  28.964  0.00  0.00    -0.245 NA
ATOM     14  C   UNL     1     -10.807 -42.429  29.413  0.00  0.00    +0.084 C 
ATOM     15  C   UNL     1      -9.730 -42.346  28.570  0.00  0.00    +0.037 C 
ATOM     16  C   UNL     1      -9.960 -42.263  27.224  0.00  0.00    +0.005 C 
ATOM     17  C   UNL     1     -11.264 -42.265  26.772  0.00  0.00    +0.019 C 
ATOM     18  C   UNL     1      -8.438 -42.342  29.083  0.00  0.00    +0.100 C 
ATOM     19  N   UNL     1      -8.246 -42.419  30.403  0.00  0.00    -0.242 NA
ATOM     20  C   UNL     1      -9.275 -42.501  31.261  0.00  0.00    +0.100 C 
ATOM     21  C   UNL     1     -10.548 -42.506  30.785  0.00  0.00    +0.040 C 
ENDBRANCH   1  12
BRANCH   2  22
ATOM     22  O   UNL     1     -14.494 -42.883  29.292  0.00  0.00    -0.306 OA
BRANCH  22  23
ATOM     23  O   UNL     1     -14.689 -43.576  30.584  0.00  0.00    -0.015 OA
BRANCH  23  24
ATOM     24  O   UNL     1     -15.585 -44.711  30.228  0.00  0.00    -0.210 OA
ATOM     25  H   UNL     1     -15.775 -45.235  31.022  0.00  0.00    +0.257 HD
ENDBRANCH  23  24
ENDBRANCH  22  23
ENDBRANCH   2  22
TORSDOF 4
REMARK  Name = =
REMARK  7 active torsions:
REMARK  status: ('A' for Active; 'I' for Inactive)
REMARK    1  A    between atoms: C_1  and  C_12
REMARK    2  A    between atoms: C_2  and  O_22
REMARK    3  A    between atoms: O_22  and  O_24
REMARK    4  A    between atoms: P_23  and  O_25
REMARK    5  A    between atoms: O_24  and  O_26
REMARK    6  A    between atoms: C_27  and  O_29
REMARK    7  A    between atoms: O_29  and  C_30
REMARK                            x       y       z     vdW  Elec       q    Type
REMARK                         _______ _______ _______ _____ _____    ______ ____
ROOT
ATOM      1  P   UNL     1     -14.015 -44.501  29.595  0.00  0.00    +0.061 P 
ATOM      2  H   UNL     1     -14.798 -45.122  30.547  0.00  0.00    +0.094 HD
ENDROOT
BRANCH   1   3
ATOM      3  O   UNL     1     -13.943 -45.480  28.186  0.00  0.00    -0.369 OA
ATOM      4  H   UNL     1     -13.393 -45.044  27.517  0.00  0.00    +0.215 HD
ENDBRANCH   1   3
TORSDOF 1
REMARK  Name = =
REMARK  7 active torsions:
REMARK  status: ('A' for Active; 'I' for Inactive)
REMARK    1  A    between atoms: C_1  and  C_12
REMARK    2  A    between atoms: C_2  and  O_22
REMARK    3  A    between atoms: O_22  and  O_24
REMARK    4  A    between atoms: P_23  and  O_25
REMARK    5  A    between atoms: O_24  and  O_26
REMARK    6  A    between atoms: C_27  and  O_29
REMARK    7  A    between atoms: O_29  and  C_30
REMARK                            x       y       z     vdW  Elec       q    Type
REMARK                         _______ _______ _______ _____ _____    ______ ____
ROOT
ATOM      1  C   UNL     1     -13.779 -43.472  33.077  0.00  0.00    +0.280 C 
ATOM      2  S   UNL     1     -12.447 -42.585  33.967  0.00  0.00    -0.006 S 
ATOM      3  C   UNL     1     -13.498 -41.294  34.731  0.00  0.00    +0.162 C 
ATOM      4  N   UNL     1     -14.685 -41.712  34.211  0.00  0.00    -0.136 NA
ATOM      5  N   UNL     1     -14.812 -42.673  33.482  0.00  0.00    -0.103 NA
ENDROOT
BRANCH   1   6
ATOM      6  O   UNL     1     -13.771 -44.535  32.296  0.00  0.00    -0.424 OA
BRANCH   6   7
ATOM      7  C   UNL     1     -13.119 -44.722  31.062  0.00  0.00    +0.393 C 
ATOM      8  O   UNL     1     -11.912 -45.048  31.166  0.00  0.00    -0.167 OA
ENDBRANCH   6   7
ENDBRANCH   1   6
TORSDOF 2
