REMARK  Name = =
REMARK  0 active torsions:
REMARK  status: ('A' for Active; 'I' for Inactive)
REMARK                            x       y       z     vdW  Elec       q    Type
REMARK                         _______ _______ _______ _____ _____    ______ ____
ROOT
ATOM      1  N   UNL     1      -4.087  -5.032  32.079  0.00  0.00    -0.326 N 
ATOM      2  C   UNL     1      -3.071  -5.951  31.806  0.00  0.00    +0.135 C 
ATOM      3  C   UNL     1      -2.220  -5.667  30.608  0.00  0.00    +0.227 C 
ATOM      4  O   UNL     1      -2.166  -4.338  30.275  0.00  0.00    -0.469 OA
ATOM      5  C   UNL     1      -3.377  -3.720  30.119  0.00  0.00    +0.188 C 
ATOM      6  C   UNL     1      -4.421  -4.073  31.104  0.00  0.00    +0.099 C 
ATOM      7  H   UNL     1      -4.563  -5.055  32.941  0.00  0.00    +0.147 HD
ENDROOT
TORSDOF 0
