REMARK  Name = =
REMARK  3 active torsions:
REMARK  status: ('A' for Active; 'I' for Inactive)
REMARK    1  A    between atoms: N_1  and  N_2
REMARK    2  A    between atoms: N_1  and  N_10
REMARK    3  A    between atoms: C_11  and  O_13
REMARK                            x       y       z     vdW  Elec       q    Type
REMARK                         _______ _______ _______ _____ _____    ______ ____
ROOT
ATOM      1  N   UNL     1     -11.267  -5.139  23.811  0.00  0.00    -0.153 NA
ATOM      2  H   UNL     1     -11.576  -5.938  23.257  0.00  0.00    +0.168 HD
ENDROOT
BRANCH   1   3
ATOM      3  N   UNL     1     -12.261  -4.838  24.731  0.00  0.00    -0.209 N 
ATOM      4  C   UNL     1     -13.558  -5.365  24.495  0.00  0.00    +0.240 C 
ATOM      5  O   UNL     1     -13.580  -6.125  23.480  0.00  0.00    -0.274 OA
ATOM      6  C   UNL     1     -14.830  -5.194  25.192  0.00  0.00    +0.087 C 
ATOM      7  C   UNL     1     -15.092  -3.857  25.775  0.00  0.00    +0.010 C 
ATOM      8  C   UNL     1     -14.009  -3.273  26.620  0.00  0.00    +0.002 C 
ATOM      9  C   UNL     1     -12.806  -2.810  25.847  0.00  0.00    +0.023 C 
ATOM     10  C   UNL     1     -11.847  -4.008  25.836  0.00  0.00    +0.113 C 
ENDBRANCH   1   3
BRANCH   1  11
ATOM     11  N   UNL     1     -10.037  -5.453  24.378  0.00  0.00    -0.200 N 
ATOM     12  C   UNL     1      -9.620  -6.828  24.486  0.00  0.00    +0.413 C 
ATOM     13  O   UNL     1     -10.411  -7.699  24.050  0.00  0.00    -0.225 OA
ATOM     14  H   UNL     1      -9.450  -4.734  24.706  0.00  0.00    +0.174 HD
BRANCH  12  15
ATOM     15  O   UNL     1      -8.426  -7.234  25.027  0.00  0.00    -0.465 OA
ATOM     16  H   UNL     1      -7.822  -6.599  25.358  0.00  0.00    +0.297 HD
ENDBRANCH  12  15
ENDBRANCH   1  11
TORSDOF 3
