REMARK  Name = =
REMARK  1 active torsions:
REMARK  status: ('A' for Active; 'I' for Inactive)
REMARK    1  A    between atoms: N_1  and  C_12
REMARK                            x       y       z     vdW  Elec       q    Type
REMARK                         _______ _______ _______ _____ _____    ______ ____
ROOT
ATOM      1  N   UNL     1      -1.957  -6.642  32.290  0.00  0.00    -0.266 N 
ATOM      2  C   UNL     1      -1.987  -7.417  31.207  0.00  0.00    +0.081 A 
ATOM      3  C   UNL     1      -0.892  -8.257  31.297  0.00  0.00    +0.076 A 
ATOM      4  C   UNL     1      -0.636  -9.194  30.318  0.00  0.00    +0.019 C 
ATOM      5  C   UNL     1      -1.485  -9.288  29.238  0.00  0.00    +0.002 C 
ATOM      6  C   UNL     1      -2.564  -8.441  29.173  0.00  0.00    +0.002 C 
ATOM      7  C   UNL     1      -2.838  -7.497  30.144  0.00  0.00    +0.019 C 
ATOM      8  N   UNL     1      -0.234  -7.950  32.451  0.00  0.00    -0.305 N 
ATOM      9  C   UNL     1      -0.889  -6.963  33.052  0.00  0.00    +0.329 A 
ATOM     10  O   UNL     1      -0.547  -6.439  34.147  0.00  0.00    -0.246 OA
ATOM     11  H   UNL     1       0.585  -8.385  32.782  0.00  0.00    +0.170 HD
ENDROOT
BRANCH   1  13
ATOM     12  N   UNL     1      -4.083  -6.147  33.288  0.00  0.00    -0.276 NA
ATOM     13  C   UNL     1      -2.888  -5.591  32.667  0.00  0.00    +0.177 C 
ATOM     14  C   UNL     1      -3.335  -4.804  31.468  0.00  0.00    +0.182 C 
ATOM     15  O   UNL     1      -4.103  -3.731  31.864  0.00  0.00    -0.349 OA
ATOM     16  C   UNL     1      -4.415  -3.709  33.198  0.00  0.00    +0.159 C 
ATOM     17  C   UNL     1      -4.872  -5.025  33.752  0.00  0.00    +0.102 C 
ATOM     18  H   UNL     1      -4.612  -6.691  32.607  0.00  0.00    +0.125 HD
ENDBRANCH   1  13
TORSDOF 1
