REMARK  Name = =
REMARK  2 active torsions:
REMARK  status: ('A' for Active; 'I' for Inactive)
REMARK    1  A    between atoms: C_2  and  N_7
REMARK    2  A    between atoms: C_5  and  C_17
REMARK                            x       y       z     vdW  Elec       q    Type
REMARK                         _______ _______ _______ _____ _____    ______ ____
ROOT
ATOM      1  N   UNL     1      -1.409  -3.549  20.625  0.00  0.00    -0.276 NA
ATOM      2  C   UNL     1      -0.805  -2.386  20.033  0.00  0.00    +0.177 C 
ATOM      3  C   UNL     1      -0.310  -2.692  18.620  0.00  0.00    +0.181 C 
ATOM      4  O   UNL     1      -0.260  -4.064  18.402  0.00  0.00    -0.351 OA
ATOM      5  C   UNL     1      -1.550  -4.631  18.449  0.00  0.00    +0.133 C 
ATOM      6  C   UNL     1      -2.290  -4.195  19.691  0.00  0.00    +0.100 C 
ATOM      7  H   UNL     1      -1.942  -3.267  21.448  0.00  0.00    +0.125 HD
ENDROOT
BRANCH   2   8
ATOM      8  N   UNL     1       0.276  -1.830  20.772  0.00  0.00    -0.266 N 
ATOM      9  C   UNL     1       0.581  -0.537  20.930  0.00  0.00    +0.081 A 
ATOM     10  C   UNL     1       1.721  -0.463  21.732  0.00  0.00    +0.076 A 
ATOM     11  C   UNL     1       2.216   0.798  22.025  0.00  0.00    +0.019 C 
ATOM     12  C   UNL     1       1.611   1.937  21.546  0.00  0.00    +0.002 C 
ATOM     13  C   UNL     1       0.486   1.838  20.755  0.00  0.00    +0.002 C 
ATOM     14  C   UNL     1      -0.035   0.586  20.443  0.00  0.00    +0.019 C 
ATOM     15  N   UNL     1       2.072  -1.713  22.036  0.00  0.00    -0.305 N 
ATOM     16  C   UNL     1       1.189  -2.533  21.448  0.00  0.00    +0.329 A 
ATOM     17  O   UNL     1       1.269  -3.793  21.562  0.00  0.00    -0.246 OA
ATOM     18  H   UNL     1       2.839  -1.984  22.591  0.00  0.00    +0.170 HD
ENDBRANCH   2   8
BRANCH   5  19
ATOM     19  C   UNL     1      -1.366  -6.121  18.466  0.00  0.00    +0.058 C 
ATOM     20  C   UNL     1      -0.371  -6.510  17.387  0.00  0.00    +0.034 C 
ATOM     21  C   UNL     1      -1.229  -7.420  16.509  0.00  0.00    +0.115 C 
ATOM     22  O   UNL     1      -2.024  -8.044  17.500  0.00  0.00    -0.359 OA
ATOM     23  C   UNL     1      -2.592  -6.886  18.086  0.00  0.00    +0.118 C 
ATOM     24  C   UNL     1      -3.273  -6.297  16.849  0.00  0.00    +0.032 C 
ATOM     25  C   UNL     1      -2.217  -6.495  15.801  0.00  0.00    +0.032 C 
ENDBRANCH   5  19
TORSDOF 2
