REMARK  Name = =
REMARK  3 active torsions:
REMARK  status: ('A' for Active; 'I' for Inactive)
REMARK    1  A    between atoms: N_1  and  C_12
REMARK    2  A    between atoms: C_7  and  C_24
REMARK    3  A    between atoms: C_15  and  C_17
REMARK                            x       y       z     vdW  Elec       q    Type
REMARK                         _______ _______ _______ _____ _____    ______ ____
ROOT
ATOM      1  N   UNL     1      -0.673  -4.803  18.192  0.00  0.00    -0.266 N 
ATOM      2  C   UNL     1      -1.119  -6.044  18.339  0.00  0.00    +0.077 A 
ATOM      3  C   UNL     1      -0.166  -6.951  17.877  0.00  0.00    +0.076 A 
ATOM      4  C   UNL     1      -0.371  -8.316  17.933  0.00  0.00    +0.019 C 
ATOM      5  C   UNL     1      -1.529  -8.786  18.451  0.00  0.00    +0.001 C 
ATOM      6  C   UNL     1      -2.477  -7.900  18.909  0.00  0.00    -0.003 C 
ATOM      7  C   UNL     1      -2.326  -6.520  18.874  0.00  0.00    -0.005 C 
ATOM      8  N   UNL     1       0.877  -6.237  17.435  0.00  0.00    -0.305 N 
ATOM      9  C   UNL     1       0.582  -4.959  17.619  0.00  0.00    +0.329 A 
ATOM     10  O   UNL     1       1.360  -4.027  17.303  0.00  0.00    -0.246 OA
ATOM     11  H   UNL     1       1.708  -6.595  17.046  0.00  0.00    +0.170 HD
ENDROOT
BRANCH   1  13
ATOM     12  N   UNL     1      -2.233  -3.046  17.657  0.00  0.00    -0.276 NA
ATOM     13  C   UNL     1      -1.174  -3.539  18.509  0.00  0.00    +0.177 C 
ATOM     14  C   UNL     1      -1.099  -2.799  19.741  0.00  0.00    +0.181 C 
ATOM     15  O   UNL     1      -0.826  -1.401  19.523  0.00  0.00    -0.351 OA
ATOM     16  C   UNL     1      -1.788  -0.852  18.706  0.00  0.00    +0.133 C 
ATOM     17  C   UNL     1      -2.773  -1.823  18.145  0.00  0.00    +0.100 C 
ATOM     18  H   UNL     1      -1.860  -2.892  16.720  0.00  0.00    +0.125 HD
BRANCH  16  19
ATOM     19  C   UNL     1      -2.560   0.157  19.527  0.00  0.00    +0.058 C 
ATOM     20  C   UNL     1      -1.754   0.723  20.664  0.00  0.00    +0.034 C 
ATOM     21  C   UNL     1      -2.830   0.769  21.762  0.00  0.00    +0.115 C 
ATOM     22  O   UNL     1      -3.327  -0.548  21.616  0.00  0.00    -0.359 OA
ATOM     23  C   UNL     1      -3.725  -0.487  20.259  0.00  0.00    +0.118 C 
ATOM     24  C   UNL     1      -4.784   0.619  20.383  0.00  0.00    +0.032 C 
ATOM     25  C   UNL     1      -3.996   1.604  21.257  0.00  0.00    +0.032 C 
ENDBRANCH  16  19
ENDBRANCH   1  13
BRANCH   7  26
ATOM     26  C   UNL     1      -3.365  -5.604  19.301  0.00  0.00    +0.024 C 
ATOM     27  C   UNL     1      -4.754  -5.971  19.192  0.00  0.00    +0.004 C 
ATOM     28  C   UNL     1      -5.224  -6.630  20.244  0.00  0.00    +0.000 C 
ATOM     29  C   UNL     1      -4.105  -6.780  21.254  0.00  0.00    +0.000 C 
ATOM     30  C   UNL     1      -3.300  -5.588  20.852  0.00  0.00    +0.004 C 
ENDBRANCH   7  26
TORSDOF 3
