REMARK  Name = =
REMARK  6 active torsions:
REMARK  status: ('A' for Active; 'I' for Inactive)
REMARK    1  A    between atoms: N_1  and  N_14
REMARK    2  A    between atoms: C_6  and  C_9
REMARK    3  A    between atoms: N_11  and  N_12
REMARK    4  A    between atoms: N_14  and  N_15
REMARK    5  A    between atoms: N_14  and  N_21
REMARK    6  A    between atoms: C_22  and  O_24
REMARK                            x       y       z     vdW  Elec       q    Type
REMARK                         _______ _______ _______ _____ _____    ______ ____
ROOT
ATOM      1  N   UNL     1     -12.867  -5.050  23.843  0.00  0.00    -0.192 N 
ATOM      2  C   UNL     1     -12.764  -5.301  22.431  0.00  0.00    +0.241 C 
ATOM      3  O   UNL     1     -13.528  -4.680  21.687  0.00  0.00    -0.273 OA
ATOM      4  C   UNL     1     -11.855  -6.219  21.680  0.00  0.00    +0.087 C 
ATOM      5  C   UNL     1     -11.015  -6.970  22.688  0.00  0.00    +0.019 C 
ATOM      6  C   UNL     1      -9.992  -6.019  23.224  0.00  0.00    +0.080 C 
ATOM      7  C   UNL     1     -10.431  -5.084  24.279  0.00  0.00    +0.032 C 
ATOM      8  C   UNL     1     -11.818  -5.238  24.796  0.00  0.00    +0.115 C 
ENDROOT
BRANCH   6   9
ATOM      9  C   UNL     1      -8.785  -6.827  23.561  0.00  0.00    +0.241 C 
ATOM     10  O   UNL     1      -7.618  -6.344  23.540  0.00  0.00    -0.273 OA
ATOM     11  N   UNL     1      -8.927  -8.203  23.925  0.00  0.00    -0.206 N 
ATOM     12  H   UNL     1      -9.817  -8.623  23.954  0.00  0.00    +0.177 HD
BRANCH  11  13
ATOM     13  N   UNL     1      -7.793  -8.935  24.236  0.00  0.00    -0.176 NA
ATOM     14  C   UNL     1      -7.567 -10.098  23.748  0.00  0.00    +0.140 C 
ENDBRANCH  11  13
ENDBRANCH   6   9
BRANCH   1  15
ATOM     15  N   UNL     1     -14.092  -4.595  24.282  0.00  0.00    -0.064 NA
BRANCH  15  16
ATOM     16  N   UNL     1     -14.240  -3.234  24.391  0.00  0.00    -0.181 NA
ATOM     17  C   UNL     1     -14.336  -2.929  25.827  0.00  0.00    +0.124 C 
ATOM     18  C   UNL     1     -15.312  -1.832  26.116  0.00  0.00    +0.161 C 
ATOM     19  O   UNL     1     -15.059  -0.776  25.248  0.00  0.00    -0.351 OA
ATOM     20  C   UNL     1     -15.348  -1.159  23.955  0.00  0.00    +0.161 C 
ATOM     21  C   UNL     1     -15.404  -2.671  23.783  0.00  0.00    +0.124 C 
ENDBRANCH  15  16
BRANCH  15  22
ATOM     22  N   UNL     1     -15.195  -5.291  23.854  0.00  0.00    -0.183 N 
ATOM     23  C   UNL     1     -15.717  -6.375  24.641  0.00  0.00    +0.414 C 
ATOM     24  O   UNL     1     -15.151  -6.677  25.739  0.00  0.00    -0.225 OA
ATOM     25  H   UNL     1     -15.630  -5.047  23.005  0.00  0.00    +0.176 HD
BRANCH  23  26
ATOM     26  O   UNL     1     -16.815  -7.124  24.286  0.00  0.00    -0.465 OA
ATOM     27  H   UNL     1     -17.268  -6.942  23.486  0.00  0.00    +0.297 HD
ENDBRANCH  23  26
ENDBRANCH  15  22
ENDBRANCH   1  15
TORSDOF 6
