REMARK  Name = =
REMARK  4 active torsions:
REMARK  status: ('A' for Active; 'I' for Inactive)
REMARK    1  A    between atoms: N_1  and  C_22
REMARK    2  A    between atoms: C_2  and  N_7
REMARK    3  A    between atoms: C_5  and  C_28
REMARK    4  A    between atoms: C_13  and  C_17
REMARK                            x       y       z     vdW  Elec       q    Type
REMARK                         _______ _______ _______ _____ _____    ______ ____
ROOT
ATOM      1  N   UNL     1       2.308  -1.716  20.651  0.00  0.00    -0.289 N 
ATOM      2  C   UNL     1       2.154  -0.408  21.356  0.00  0.00    +0.196 C 
ATOM      3  C   UNL     1       2.927  -0.530  22.685  0.00  0.00    +0.186 C 
ATOM      4  O   UNL     1       3.982  -1.392  22.631  0.00  0.00    -0.351 OA
ATOM      5  C   UNL     1       3.413  -2.693  22.617  0.00  0.00    +0.137 C 
ATOM      6  C   UNL     1       2.925  -2.861  21.197  0.00  0.00    +0.122 C 
ENDROOT
BRANCH   2   7
ATOM      7  N   UNL     1       0.795  -0.173  21.619  0.00  0.00    -0.263 N 
ATOM      8  C   UNL     1      -0.067   0.767  21.225  0.00  0.00    +0.078 A 
ATOM      9  C   UNL     1      -1.324   0.512  21.806  0.00  0.00    +0.076 A 
ATOM     10  C   UNL     1      -2.382   1.345  21.564  0.00  0.00    +0.019 C 
ATOM     11  C   UNL     1      -2.258   2.443  20.760  0.00  0.00    +0.001 C 
ATOM     12  C   UNL     1      -1.026   2.674  20.205  0.00  0.00    -0.002 C 
ATOM     13  C   UNL     1       0.088   1.868  20.410  0.00  0.00    +0.003 C 
ATOM     14  N   UNL     1      -1.160  -0.593  22.540  0.00  0.00    -0.305 N 
ATOM     15  C   UNL     1       0.081  -1.014  22.445  0.00  0.00    +0.329 A 
ATOM     16  O   UNL     1       0.498  -2.035  23.043  0.00  0.00    -0.246 OA
ATOM     17  H   UNL     1      -1.865  -1.027  23.073  0.00  0.00    +0.170 HD
BRANCH  13  18
ATOM     18  C   UNL     1       1.378   2.172  19.786  0.00  0.00    +0.068 C 
ATOM     19  C   UNL     1       1.035   3.060  18.641  0.00  0.00    -0.018 C 
ATOM     20  C   UNL     1       1.406   4.293  18.757  0.00  0.00    -0.004 C 
ATOM     21  C   UNL     1       2.093   4.496  20.039  0.00  0.00    -0.004 C 
ATOM     22  C   UNL     1       2.228   3.133  20.592  0.00  0.00    -0.018 C 
ENDBRANCH  13  18
ENDBRANCH   2   7
BRANCH   1  23
ATOM     23  C   UNL     1       1.841  -1.810  19.308  0.00  0.00    +0.046 C 
ATOM     24  C   UNL     1       1.379  -3.041  19.012  0.00  0.00    +0.129 C 
ATOM     25  N   UNL     1       0.867  -3.380  17.756  0.00  0.00    -0.327 N 
ATOM     26  C   UNL     1       0.831  -2.399  16.752  0.00  0.00    +0.058 C 
ATOM     27  C   UNL     1       1.280  -1.195  17.035  0.00  0.00    +0.017 C 
ATOM     28  C   UNL     1       1.833  -0.750  18.330  0.00  0.00    +0.013 C 
ATOM     29  H   UNL     1       0.537  -4.291  17.579  0.00  0.00    +0.147 HD
ENDBRANCH   1  23
BRANCH   5  30
ATOM     30  C   UNL     1       4.521  -3.640  22.941  0.00  0.00    +0.059 C 
ATOM     31  C   UNL     1       5.625  -2.896  23.674  0.00  0.00    +0.034 C 
ATOM     32  C   UNL     1       5.863  -3.825  24.854  0.00  0.00    +0.115 C 
ATOM     33  O   UNL     1       4.528  -4.166  25.176  0.00  0.00    -0.359 OA
ATOM     34  C   UNL     1       4.106  -4.697  23.943  0.00  0.00    +0.118 C 
ATOM     35  C   UNL     1       5.121  -5.839  23.792  0.00  0.00    +0.032 C 
ATOM     36  C   UNL     1       6.384  -5.136  24.260  0.00  0.00    +0.032 C 
ENDBRANCH   5  30
TORSDOF 4
