REMARK  Name = =
REMARK  5 active torsions:
REMARK  status: ('A' for Active; 'I' for Inactive)
REMARK    1  A    between atoms: N_1  and  C_22
REMARK    2  A    between atoms: C_2  and  N_7
REMARK    3  A    between atoms: C_5  and  C_38
REMARK    4  A    between atoms: C_13  and  C_17
REMARK    5  A    between atoms: C_27  and  C_28
REMARK                            x       y       z     vdW  Elec       q    Type
REMARK                         _______ _______ _______ _____ _____    ______ ____
ROOT
ATOM      1  N   UNL     1       2.030  -2.545  21.216  0.00  0.00    -0.289 N 
ATOM      2  C   UNL     1       3.220  -3.048  21.782  0.00  0.00    +0.196 C 
ATOM      3  C   UNL     1       4.070  -3.443  20.534  0.00  0.00    +0.186 C 
ATOM      4  O   UNL     1       3.441  -4.504  19.887  0.00  0.00    -0.351 OA
ATOM      5  C   UNL     1       2.276  -3.960  19.291  0.00  0.00    +0.137 C 
ATOM      6  C   UNL     1       1.350  -3.606  20.377  0.00  0.00    +0.122 C 
ENDROOT
BRANCH   2   7
ATOM      7  N   UNL     1       4.060  -2.235  22.546  0.00  0.00    -0.263 N 
ATOM      8  C   UNL     1       4.570  -2.504  23.782  0.00  0.00    +0.077 A 
ATOM      9  C   UNL     1       5.345  -1.389  24.125  0.00  0.00    +0.076 A 
ATOM     10  C   UNL     1       6.048  -1.301  25.308  0.00  0.00    +0.019 C 
ATOM     11  C   UNL     1       5.986  -2.350  26.178  0.00  0.00    +0.001 C 
ATOM     12  C   UNL     1       5.237  -3.449  25.855  0.00  0.00    -0.003 C 
ATOM     13  C   UNL     1       4.505  -3.581  24.661  0.00  0.00    -0.005 C 
ATOM     14  N   UNL     1       5.262  -0.518  23.087  0.00  0.00    -0.305 N 
ATOM     15  C   UNL     1       4.488  -1.021  22.125  0.00  0.00    +0.329 A 
ATOM     16  O   UNL     1       4.272  -0.389  21.060  0.00  0.00    -0.246 OA
ATOM     17  H   UNL     1       5.709   0.358  23.050  0.00  0.00    +0.170 HD
BRANCH  13  18
ATOM     18  C   UNL     1       3.770  -4.774  24.337  0.00  0.00    +0.024 C 
ATOM     19  C   UNL     1       2.398  -4.938  24.868  0.00  0.00    +0.004 C 
ATOM     20  C   UNL     1       2.132  -6.224  25.149  0.00  0.00    +0.000 C 
ATOM     21  C   UNL     1       3.355  -7.031  24.814  0.00  0.00    +0.000 C 
ATOM     22  C   UNL     1       4.394  -5.927  25.203  0.00  0.00    +0.004 C 
ENDBRANCH  13  18
ENDBRANCH   2   7
BRANCH   1  23
ATOM     23  C   UNL     1       1.283  -1.362  21.198  0.00  0.00    +0.049 C 
ATOM     24  C   UNL     1       1.492  -0.422  20.266  0.00  0.00    +0.129 C 
ATOM     25  N   UNL     1       0.794   0.794  20.151  0.00  0.00    -0.327 N 
ATOM     26  C   UNL     1      -0.223   1.028  21.109  0.00  0.00    +0.058 C 
ATOM     27  C   UNL     1      -0.452   0.147  22.009  0.00  0.00    +0.020 C 
ATOM     28  C   UNL     1       0.233  -1.132  22.191  0.00  0.00    +0.048 C 
ATOM     29  H   UNL     1       1.001   1.447  19.444  0.00  0.00    +0.147 HD
BRANCH  28  30
ATOM     30  C   UNL     1       0.741  -1.049  23.613  0.00  0.00    +0.163 C 
ATOM     31  N   UNL     1       0.159  -1.784  24.564  0.00  0.00    -0.227 NA
ATOM     32  C   UNL     1       0.517  -1.741  25.846  0.00  0.00    +0.084 C 
ATOM     33  C   UNL     1       1.534  -0.908  26.241  0.00  0.00    +0.037 C 
ATOM     34  C   UNL     1       1.917  -0.854  27.583  0.00  0.00    +0.003 C 
ATOM     35  C   UNL     1       1.281  -1.629  28.502  0.00  0.00    +0.000 C 
ATOM     36  C   UNL     1       0.262  -2.468  28.123  0.00  0.00    +0.002 C 
ATOM     37  C   UNL     1      -0.110  -2.513  26.786  0.00  0.00    +0.019 C 
ATOM     38  C   UNL     1       2.144  -0.145  25.274  0.00  0.00    +0.102 C 
ATOM     39  N   UNL     1       1.731  -0.237  23.986  0.00  0.00    -0.225 NA
ENDBRANCH  28  30
ENDBRANCH   1  23
BRANCH   5  40
ATOM     40  C   UNL     1       1.805  -4.768  18.164  0.00  0.00    +0.059 C 
ATOM     41  C   UNL     1       1.683  -6.248  18.333  0.00  0.00    +0.034 C 
ATOM     42  C   UNL     1       0.834  -6.560  17.083  0.00  0.00    +0.115 C 
ATOM     43  O   UNL     1       0.683  -5.321  16.406  0.00  0.00    -0.359 OA
ATOM     44  C   UNL     1       0.482  -4.481  17.552  0.00  0.00    +0.118 C 
ATOM     45  C   UNL     1      -0.704  -5.178  18.120  0.00  0.00    +0.032 C 
ATOM     46  C   UNL     1      -0.604  -6.633  17.625  0.00  0.00    +0.032 C 
ENDBRANCH   5  40
TORSDOF 5
