REMARK  Name = =
REMARK  6 active torsions:
REMARK  status: ('A' for Active; 'I' for Inactive)
REMARK    1  A    between atoms: C_1  and  C_17
REMARK    2  A    between atoms: C_1  and  C_23
REMARK    3  A    between atoms: C_2  and  C_3
REMARK    4  A    between atoms: C_2  and  C_29
REMARK    5  A    between atoms: N_13  and  S_19
REMARK    6  A    between atoms: S_19  and  N_22
REMARK                            x       y       z     vdW  Elec       q    Type
REMARK                         _______ _______ _______ _____ _____    ______ ____
ROOT
ATOM      1  C   UNL     1      -3.734  -3.600  31.146  0.00  0.00    +0.033 C 
ATOM      2  C   UNL     1      -3.555  -4.677  31.963  0.00  0.00    +0.025 C 
ENDROOT
BRANCH   2   3
ATOM      3  C   UNL     1      -2.381  -5.581  31.725  0.00  0.00    +0.168 C 
ATOM      4  N   UNL     1      -2.607  -6.909  31.592  0.00  0.00    -0.142 NA
ATOM      5  N   UNL     1      -1.624  -7.790  31.456  0.00  0.00    -0.115 NA
ATOM      6  C   UNL     1      -0.331  -7.404  31.444  0.00  0.00    +0.107 C 
ATOM      7  C   UNL     1      -0.092  -6.050  31.579  0.00  0.00    +0.089 C 
ATOM      8  N   UNL     1      -1.116  -5.180  31.715  0.00  0.00    -0.192 NA
ATOM      9  C   UNL     1       1.221  -5.599  31.573  0.00  0.00    +0.018 C 
ATOM     10  C   UNL     1       2.271  -6.470  31.437  0.00  0.00    +0.001 C 
ATOM     11  C   UNL     1       1.992  -7.814  31.305  0.00  0.00    +0.001 C 
ATOM     12  C   UNL     1       0.701  -8.307  31.305  0.00  0.00    +0.020 C 
ENDBRANCH   2   3
BRANCH   1  17
ATOM     13  N   UNL     1      -5.157  -1.402  31.141  0.00  0.00    -0.076 N 
ATOM     14  C   UNL     1      -4.560  -0.259  30.663  0.00  0.00    +0.327 C 
ATOM     15  O   UNL     1      -3.445  -0.064  30.224  0.00  0.00    -0.251 OA
ATOM     16  N   UNL     1      -5.361   0.983  30.658  0.00  0.00    -0.312 N 
ATOM     17  C   UNL     1      -4.832  -2.738  31.363  0.00  0.00    +0.272 C 
ATOM     18  O   UNL     1      -5.847  -3.407  31.953  0.00  0.00    -0.268 OA
ATOM     19  H   UNL     1      -6.288   0.972  30.988  0.00  0.00    +0.147 HD
ATOM     20  H   UNL     1      -4.967   1.821  30.325  0.00  0.00    +0.147 HD
BRANCH  13  21
ATOM     21  S   UNL     1      -6.868  -1.053  31.675  0.00  0.00    +0.119 S 
ATOM     22  O   UNL     1      -7.773  -1.903  30.858  0.00  0.00    -0.138 OA
ATOM     23  O   UNL     1      -7.125   0.369  31.320  0.00  0.00    -0.138 OA
BRANCH  21  24
ATOM     24  N   UNL     1      -7.011  -1.384  33.330  0.00  0.00    -0.190 NA
ATOM     25  H   UNL     1      -6.822  -2.372  33.497  0.00  0.00    +0.146 HD
ATOM     26  H   UNL     1      -7.957  -1.162  33.641  0.00  0.00    +0.146 HD
ENDBRANCH  21  24
ENDBRANCH  13  21
ENDBRANCH   1  17
BRANCH   1  27
ATOM     27  C   UNL     1      -2.734  -3.486  30.020  0.00  0.00    +0.027 C 
ATOM     28  C   UNL     1      -1.623  -2.565  30.336  0.00  0.00    +0.004 C 
ATOM     29  C   UNL     1      -0.858  -2.084  29.157  0.00  0.00    +0.000 C 
ATOM     30  C   UNL     1      -1.127  -2.888  27.903  0.00  0.00    +0.000 C 
ATOM     31  C   UNL     1      -2.605  -2.719  27.607  0.00  0.00    +0.000 C 
ATOM     32  C   UNL     1      -3.431  -3.288  28.724  0.00  0.00    +0.004 C 
ENDBRANCH   1  27
BRANCH   2  33
ATOM     33  C   UNL     1      -4.376  -5.044  33.058  0.00  0.00    +0.098 C 
ATOM     34  S   UNL     1      -3.868  -6.358  33.985  0.00  0.00    -0.077 S 
ENDBRANCH   2  33
TORSDOF 6
