REMARK  Name = =
REMARK  3 active torsions:
REMARK  status: ('A' for Active; 'I' for Inactive)
REMARK    1  A    between atoms: C_1  and  C_10
REMARK    2  A    between atoms: C_1  and  C_16
REMARK    3  A    between atoms: C_12  and  O_15
REMARK                            x       y       z     vdW  Elec       q    Type
REMARK                         _______ _______ _______ _____ _____    ______ ____
ROOT
ATOM      1  C   UNL     1     -11.959 -43.347  28.405  0.00  0.00    +0.162 C 
ATOM      2  S   UNL     1     -12.472 -44.116  30.028  0.00  0.00    -0.114 S 
ATOM      3  C   UNL     1     -10.901 -43.739  30.895  0.00  0.00    +0.081 C 
ATOM      4  C   UNL     1     -10.184 -42.901  29.902  0.00  0.00    +0.107 C 
ATOM      5  N   UNL     1     -11.146 -42.301  28.975  0.00  0.00    -0.259 N 
ATOM      6  C   UNL     1     -11.209 -40.927  28.762  0.00  0.00    +0.304 C 
ATOM      7  O   UNL     1     -12.033 -40.381  28.009  0.00  0.00    -0.265 OA
ENDROOT
BRANCH   1  10
ATOM      8  F   UNL     1     -11.954 -42.535  25.705  0.00  0.00    -0.204 F 
ATOM      9  C   UNL     1     -13.110 -42.521  26.413  0.00  0.00    +0.139 C 
ATOM     10  C   UNL     1     -13.177 -42.947  27.737  0.00  0.00    +0.038 C 
ATOM     11  C   UNL     1     -14.402 -42.946  28.398  0.00  0.00    +0.037 C 
ATOM     12  C   UNL     1     -15.564 -42.536  27.797  0.00  0.00    +0.134 C 
ATOM     13  C   UNL     1     -15.495 -42.115  26.493  0.00  0.00    +0.039 C 
ATOM     14  C   UNL     1     -14.293 -42.114  25.835  0.00  0.00    +0.032 C 
BRANCH  12  15
ATOM     15  O   UNL     1     -16.775 -42.539  28.464  0.00  0.00    -0.506 OA
ATOM     16  H   UNL     1     -16.819 -42.827  29.355  0.00  0.00    +0.292 HD
ENDBRANCH  12  15
ENDBRANCH   1  10
BRANCH   1  17
ATOM     17  C   UNL     1     -11.261 -44.416  27.669  0.00  0.00    +0.221 C 
ATOM     18  O   UNL     1     -10.032 -44.841  28.159  0.00  0.00    -0.442 OA
ATOM     19  C   UNL     1     -10.087 -46.189  28.469  0.00  0.00    +0.341 C 
ATOM     20  O   UNL     1      -9.138 -46.860  28.930  0.00  0.00    -0.245 OA
ATOM     21  C   UNL     1     -11.433 -46.652  28.158  0.00  0.00    +0.081 C 
ATOM     22  C   UNL     1     -12.142 -45.633  27.688  0.00  0.00    +0.026 C 
ENDBRANCH   1  17
TORSDOF 3
