REMARK  Name = =
REMARK  0 active torsions:
REMARK  status: ('A' for Active; 'I' for Inactive)
REMARK                            x       y       z     vdW  Elec       q    Type
REMARK                         _______ _______ _______ _____ _____    ______ ____
ROOT
ATOM      1  N   UNL     1      -3.636  -3.907  30.808  0.00  0.00    -0.218 NA
ATOM      2  C   UNL     1      -2.958  -4.075  29.559  0.00  0.00    +0.089 C 
ATOM      3  C   UNL     1      -1.825  -5.059  29.604  0.00  0.00    +0.019 C 
ATOM      4  C   UNL     1      -2.129  -6.316  30.336  0.00  0.00    +0.003 C 
ATOM      5  C   UNL     1      -2.966  -6.156  31.557  0.00  0.00    +0.019 C 
ATOM      6  C   UNL     1      -4.040  -5.117  31.443  0.00  0.00    +0.089 C 
ENDROOT
TORSDOF 0
