REMARK  Name = =
REMARK  1 active torsions:
REMARK  status: ('A' for Active; 'I' for Inactive)
REMARK    1  A    between atoms: N_1  and  C_10
REMARK                            x       y       z     vdW  Elec       q    Type
REMARK                         _______ _______ _______ _____ _____    ______ ____
ROOT
ATOM      1  N   UNL     1      -0.785  -4.706  28.793  0.00  0.00    -0.230 N 
ATOM      2  C   UNL     1      -0.086  -5.341  27.730  0.00  0.00    +0.232 C 
ATOM      3  O   UNL     1      -0.280  -6.544  27.343  0.00  0.00    -0.274 OA
ATOM      4  C   UNL     1       0.874  -4.358  27.187  0.00  0.00    +0.095 C 
ATOM      5  C   UNL     1       1.329  -3.640  28.453  0.00  0.00    +0.095 C 
ATOM      6  C   UNL     1       0.079  -3.670  29.256  0.00  0.00    +0.232 C 
ATOM      7  O   UNL     1      -0.158  -2.880  30.204  0.00  0.00    -0.274 OA
ENDROOT
BRANCH   1  10
ATOM      8  N   UNL     1      -2.999  -2.896  30.006  0.00  0.00    -0.216 NA
ATOM      9  C   UNL     1      -3.107  -3.946  29.029  0.00  0.00    +0.109 C 
ATOM     10  C   UNL     1      -2.106  -5.064  29.285  0.00  0.00    +0.100 C 
ATOM     11  C   UNL     1      -2.105  -5.406  30.745  0.00  0.00    +0.023 C 
ATOM     12  C   UNL     1      -3.344  -4.852  31.388  0.00  0.00    +0.021 C 
ATOM     13  C   UNL     1      -3.292  -3.345  31.346  0.00  0.00    +0.089 C 
ENDBRANCH   1  10
TORSDOF 1
