REMARK  Name = =
REMARK  2 active torsions:
REMARK  status: ('A' for Active; 'I' for Inactive)
REMARK    1  A    between atoms: C_1  and  O_7
REMARK    2  A    between atoms: O_7  and  N_8
REMARK                            x       y       z     vdW  Elec       q    Type
REMARK                         _______ _______ _______ _____ _____    ______ ____
ROOT
ATOM      1  C   UNL     1      -2.096  -3.555  30.287  0.00  0.00    +0.189 C 
ATOM      2  C   UNL     1      -3.310  -3.120  29.812  0.00  0.00    +0.138 C 
ATOM      3  N   UNL     1      -4.387  -3.923  29.866  0.00  0.00    -0.239 NA
ATOM      4  C   UNL     1      -4.275  -5.162  30.388  0.00  0.00    +0.099 C 
ATOM      5  C   UNL     1      -3.064  -5.639  30.880  0.00  0.00    +0.024 C 
ATOM      6  C   UNL     1      -1.952  -4.815  30.826  0.00  0.00    +0.043 C 
ENDROOT
BRANCH   1   7
ATOM      7  O   UNL     1      -0.981  -2.699  30.221  0.00  0.00    -0.356 OA
BRANCH   7   8
ATOM      8  N   UNL     1      -0.331  -2.531  29.001  0.00  0.00    +0.159 NA
ATOM      9  O   UNL     1      -0.315  -3.438  28.149  0.00  0.00    -0.057 OA
ENDBRANCH   7   8
ENDBRANCH   1   7
TORSDOF 2
