REMARK  Name = =
REMARK  2 active torsions:
REMARK  status: ('A' for Active; 'I' for Inactive)
REMARK    1  A    between atoms: N_1  and  C_10
REMARK    2  A    between atoms: C_4  and  S_14
REMARK                            x       y       z     vdW  Elec       q    Type
REMARK                         _______ _______ _______ _____ _____    ______ ____
ROOT
ATOM      1  N   UNL     1       0.047  -5.058  29.682  0.00  0.00    -0.229 N 
ATOM      2  C   UNL     1       1.319  -5.044  29.067  0.00  0.00    +0.240 C 
ATOM      3  O   UNL     1       2.045  -6.043  28.829  0.00  0.00    -0.274 OA
ATOM      4  C   UNL     1       1.663  -3.646  28.742  0.00  0.00    +0.122 C 
ATOM      5  C   UNL     1       0.610  -2.801  29.426  0.00  0.00    +0.105 C 
ATOM      6  C   UNL     1      -0.435  -3.744  29.878  0.00  0.00    +0.233 C 
ATOM      7  O   UNL     1      -1.549  -3.404  30.350  0.00  0.00    -0.274 OA
ENDROOT
BRANCH   1  10
ATOM      8  N   UNL     1      -0.939  -7.948  31.705  0.00  0.00    -0.216 NA
ATOM      9  C   UNL     1      -0.332  -6.626  31.493  0.00  0.00    +0.109 C 
ATOM     10  C   UNL     1      -0.682  -6.252  30.068  0.00  0.00    +0.100 C 
ATOM     11  C   UNL     1      -2.158  -5.989  30.016  0.00  0.00    +0.023 C 
ATOM     12  C   UNL     1      -2.929  -6.620  31.124  0.00  0.00    +0.021 C 
ATOM     13  C   UNL     1      -2.359  -7.877  31.664  0.00  0.00    +0.089 C 
ENDBRANCH   1  10
BRANCH   4  14
ATOM     14  S   UNL     1       1.669  -3.366  26.964  0.00  0.00    -0.195 S 
ATOM     15  C   UNL     1       3.183  -3.441  26.421  0.00  0.00    +0.055 C 
ATOM     16  H   UNL     1       1.150  -2.138  26.695  0.00  0.00    +0.093 HD
ENDBRANCH   4  14
TORSDOF 2
