REMARK  Name = =
REMARK  6 active torsions:
REMARK  status: ('A' for Active; 'I' for Inactive)
REMARK    1  A    between atoms: C_3  and  N_7
REMARK    2  A    between atoms: C_3  and  N_16
REMARK    3  A    between atoms: C_10  and  S_14
REMARK    4  A    between atoms: N_16  and  C_17
REMARK    5  A    between atoms: C_20  and  C_23
REMARK    6  A    between atoms: C_23  and  O_25
REMARK                            x       y       z     vdW  Elec       q    Type
REMARK                         _______ _______ _______ _____ _____    ______ ____
ROOT
ATOM      1  N   UNL     1       2.181  -7.383  26.959  0.00  0.00    -0.215 NA
ATOM      2  C   UNL     1       2.824  -7.801  25.695  0.00  0.00    +0.126 C 
ATOM      3  C   UNL     1       2.097  -8.837  24.966  0.00  0.00    +0.140 C 
ATOM      4  C   UNL     1       0.885  -9.195  25.862  0.00  0.00    +0.041 C 
ATOM      5  C   UNL     1       1.454  -9.665  27.188  0.00  0.00    +0.022 C 
ATOM      6  C   UNL     1       2.242  -8.556  27.837  0.00  0.00    +0.089 C 
ENDROOT
BRANCH   3   7
ATOM      7  N   UNL     1       2.756 -10.083  24.714  0.00  0.00    -0.216 N 
ATOM      8  C   UNL     1       2.062 -11.129  24.001  0.00  0.00    +0.242 C 
ATOM      9  O   UNL     1       0.931 -11.090  23.462  0.00  0.00    -0.274 OA
ATOM     10  C   UNL     1       2.927 -12.329  23.995  0.00  0.00    +0.122 C 
ATOM     11  C   UNL     1       4.127 -12.029  24.818  0.00  0.00    +0.105 C 
ATOM     12  C   UNL     1       4.027 -10.561  25.036  0.00  0.00    +0.234 C 
ATOM     13  O   UNL     1       4.971  -9.882  25.450  0.00  0.00    -0.274 OA
BRANCH  10  14
ATOM     14  S   UNL     1       1.961 -13.686  24.678  0.00  0.00    -0.195 S 
ATOM     15  C   UNL     1       1.454 -13.381  26.148  0.00  0.00    +0.055 C 
ATOM     16  H   UNL     1       2.735 -14.804  24.705  0.00  0.00    +0.093 HD
ENDBRANCH  10  14
ENDBRANCH   3   7
BRANCH   3  17
ATOM     17  N   UNL     1       1.537  -8.371  23.705  0.00  0.00    -0.320 N 
ATOM     18  H   UNL     1       0.614  -8.630  23.481  0.00  0.00    +0.148 HD
BRANCH  17  19
ATOM     19  C   UNL     1       2.252  -7.563  22.782  0.00  0.00    +0.046 C 
ATOM     20  C   UNL     1       1.924  -6.250  22.513  0.00  0.00    +0.015 C 
ATOM     21  C   UNL     1       2.660  -5.497  21.592  0.00  0.00    +0.008 C 
ATOM     22  C   UNL     1       3.739  -6.025  20.918  0.00  0.00    +0.076 C 
ATOM     23  C   UNL     1       4.064  -7.337  21.189  0.00  0.00    +0.008 C 
ATOM     24  C   UNL     1       3.334  -8.077  22.098  0.00  0.00    +0.015 C 
BRANCH  22  25
ATOM     25  C   UNL     1       4.497  -5.220  19.958  0.00  0.00    +0.338 C 
ATOM     26  O   UNL     1       3.984  -4.168  19.505  0.00  0.00    -0.245 OA
BRANCH  25  27
ATOM     27  O   UNL     1       5.764  -5.560  19.518  0.00  0.00    -0.477 OA
ATOM     28  H   UNL     1       6.177  -6.339  19.836  0.00  0.00    +0.295 HD
ENDBRANCH  25  27
ENDBRANCH  22  25
ENDBRANCH  17  19
ENDBRANCH   3  17
TORSDOF 6
