REMARK  Name = =
REMARK  7 active torsions:
REMARK  status: ('A' for Active; 'I' for Inactive)
REMARK    1  A    between atoms: C_1  and  O_20
REMARK    2  A    between atoms: C_2  and  N_7
REMARK    3  A    between atoms: C_5  and  O_23
REMARK    4  A    between atoms: N_10  and  C_13
REMARK    5  A    between atoms: O_20  and  N_21
REMARK    6  A    between atoms: O_23  and  C_24
REMARK    7  A    between atoms: C_24  and  C_26
REMARK                            x       y       z     vdW  Elec       q    Type
REMARK                         _______ _______ _______ _____ _____    ______ ____
ROOT
ATOM      1  C   UNL     1      -1.819  -5.604  31.309  0.00  0.00    +0.213 C 
ATOM      2  C   UNL     1      -2.469  -4.440  30.987  0.00  0.00    +0.170 C 
ATOM      3  N   UNL     1      -1.786  -3.514  30.286  0.00  0.00    -0.223 NA
ATOM      4  C   UNL     1      -0.515  -3.715  29.914  0.00  0.00    +0.138 C 
ATOM      5  C   UNL     1       0.181  -4.864  30.212  0.00  0.00    +0.171 C 
ATOM      6  C   UNL     1      -0.514  -5.814  30.928  0.00  0.00    +0.082 C 
ENDROOT
BRANCH   2   7
ATOM      7  N   UNL     1      -3.805  -4.146  31.351  0.00  0.00    -0.287 N 
ATOM      8  C   UNL     1      -3.855  -3.847  32.751  0.00  0.00    +0.114 C 
ATOM      9  C   UNL     1      -5.302  -3.690  33.154  0.00  0.00    +0.112 C 
ATOM     10  N   UNL     1      -6.071  -2.922  32.198  0.00  0.00    -0.304 N 
ATOM     11  C   UNL     1      -5.607  -2.516  30.906  0.00  0.00    +0.112 C 
ATOM     12  C   UNL     1      -4.302  -3.107  30.495  0.00  0.00    +0.114 C 
BRANCH  10  13
ATOM     13  C   UNL     1      -7.389  -2.546  32.583  0.00  0.00    +0.048 C 
ATOM     14  C   UNL     1      -8.165  -3.305  33.450  0.00  0.00    +0.017 C 
ATOM     15  C   UNL     1      -9.425  -2.947  33.818  0.00  0.00    +0.031 C 
ATOM     16  C   UNL     1      -9.996  -1.791  33.335  0.00  0.00    +0.140 C 
ATOM     17  C   UNL     1      -9.261  -1.009  32.471  0.00  0.00    +0.031 C 
ATOM     18  C   UNL     1      -7.994  -1.384  32.111  0.00  0.00    +0.017 C 
ATOM     19  F   UNL     1     -11.245  -1.395  33.672  0.00  0.00    -0.204 F 
ENDBRANCH  10  13
ENDBRANCH   2   7
BRANCH   1  20
ATOM     20  O   UNL     1      -2.487  -6.573  32.023  0.00  0.00    -0.319 OA
BRANCH  20  21
ATOM     21  N   UNL     1      -1.891  -7.693  32.532  0.00  0.00    +0.161 NA
ATOM     22  O   UNL     1      -2.128  -8.840  32.148  0.00  0.00    -0.105 OA
ENDBRANCH  20  21
ENDBRANCH   1  20
BRANCH   5  23
ATOM     23  O   UNL     1       1.487  -4.982  29.786  0.00  0.00    -0.417 OA
BRANCH  23  24
ATOM     24  C   UNL     1       1.857  -5.326  28.517  0.00  0.00    +0.389 C 
ATOM     25  O   UNL     1       1.202  -6.249  27.946  0.00  0.00    -0.241 OA
BRANCH  24  26
ATOM     26  C   UNL     1       2.954  -4.701  27.781  0.00  0.00    +0.316 C 
ATOM     27  O   UNL     1       3.543  -3.741  28.341  0.00  0.00    -0.276 OA
ENDBRANCH  24  26
ENDBRANCH  23  24
ENDBRANCH   5  23
TORSDOF 7
