REMARK  Name = =
REMARK  6 active torsions:
REMARK  status: ('A' for Active; 'I' for Inactive)
REMARK    1  A    between atoms: C_13  and  N_17
REMARK    2  A    between atoms: C_13  and  N_26
REMARK    3  A    between atoms: C_20  and  S_24
REMARK    4  A    between atoms: N_26  and  C_27
REMARK    5  A    between atoms: C_30  and  C_33
REMARK    6  A    between atoms: C_33  and  O_35
REMARK                            x       y       z     vdW  Elec       q    Type
REMARK                         _______ _______ _______ _____ _____    ______ ____
ROOT
ATOM      1  C   UNL     1       2.304  -2.667  25.899  0.00  0.00    +0.133 C 
ATOM      2  N   UNL     1       1.891  -3.882  26.279  0.00  0.00    -0.212 NA
ATOM      3  C   UNL     1       0.820  -4.089  27.068  0.00  0.00    +0.164 C 
ATOM      4  C   UNL     1       0.068  -3.032  27.542  0.00  0.00    +0.036 C 
ATOM      5  C   UNL     1       0.466  -1.762  27.168  0.00  0.00    +0.006 C 
ATOM      6  C   UNL     1       1.570  -1.579  26.356  0.00  0.00    +0.034 C 
ATOM      7  C   UNL     1      -1.039  -3.232  28.357  0.00  0.00    +0.005 C 
ATOM      8  C   UNL     1      -1.418  -4.510  28.718  0.00  0.00    +0.021 C 
ATOM      9  C   UNL     1      -0.642  -5.549  28.226  0.00  0.00    +0.101 C 
ATOM     10  N   UNL     1       0.431  -5.328  27.433  0.00  0.00    -0.225 NA
ATOM     11  N   UNL     1       3.441  -2.451  25.060  0.00  0.00    -0.290 N 
ATOM     12  C   UNL     1       3.982  -3.798  24.755  0.00  0.00    +0.130 C 
ATOM     13  C   UNL     1       5.129  -3.766  23.805  0.00  0.00    +0.142 C 
ATOM     14  C   UNL     1       5.557  -2.261  23.822  0.00  0.00    +0.041 C 
ATOM     15  C   UNL     1       5.789  -1.833  25.270  0.00  0.00    +0.025 C 
ATOM     16  C   UNL     1       4.411  -1.730  25.891  0.00  0.00    +0.092 C 
ENDROOT
BRANCH  13  17
ATOM     17  N   UNL     1       4.854  -4.094  22.458  0.00  0.00    -0.215 N 
ATOM     18  C   UNL     1       3.702  -3.846  21.645  0.00  0.00    +0.242 C 
ATOM     19  O   UNL     1       2.938  -2.889  21.716  0.00  0.00    -0.274 OA
ATOM     20  C   UNL     1       3.567  -4.961  20.665  0.00  0.00    +0.122 C 
ATOM     21  C   UNL     1       4.984  -5.329  20.435  0.00  0.00    +0.105 C 
ATOM     22  C   UNL     1       5.726  -4.806  21.591  0.00  0.00    +0.234 C 
ATOM     23  O   UNL     1       6.986  -5.025  21.699  0.00  0.00    -0.274 OA
BRANCH  20  24
ATOM     24  S   UNL     1       2.740  -4.411  19.176  0.00  0.00    -0.195 S 
ATOM     25  C   UNL     1       2.936  -5.438  17.975  0.00  0.00    +0.055 C 
ATOM     26  H   UNL     1       3.249  -3.204  18.810  0.00  0.00    +0.093 HD
ENDBRANCH  20  24
ENDBRANCH  13  17
BRANCH  13  27
ATOM     27  N   UNL     1       6.297  -4.459  24.270  0.00  0.00    -0.320 N 
ATOM     28  H   UNL     1       7.156  -4.052  24.013  0.00  0.00    +0.148 HD
BRANCH  27  29
ATOM     29  C   UNL     1       6.396  -5.627  25.035  0.00  0.00    +0.046 C 
ATOM     30  C   UNL     1       7.241  -6.678  24.654  0.00  0.00    +0.015 C 
ATOM     31  C   UNL     1       7.371  -7.831  25.388  0.00  0.00    +0.008 C 
ATOM     32  C   UNL     1       6.660  -7.987  26.540  0.00  0.00    +0.076 C 
ATOM     33  C   UNL     1       5.821  -6.986  26.950  0.00  0.00    +0.008 C 
ATOM     34  C   UNL     1       5.701  -5.815  26.188  0.00  0.00    +0.015 C 
BRANCH  32  35
ATOM     35  C   UNL     1       6.760  -9.204  27.367  0.00  0.00    +0.338 C 
ATOM     36  O   UNL     1       5.756  -9.655  27.969  0.00  0.00    -0.245 OA
BRANCH  35  37
ATOM     37  O   UNL     1       7.970  -9.843  27.475  0.00  0.00    -0.477 OA
ATOM     38  H   UNL     1       8.720  -9.506  27.025  0.00  0.00    +0.295 HD
ENDBRANCH  35  37
ENDBRANCH  32  35
ENDBRANCH  27  29
ENDBRANCH  13  27
TORSDOF 6
