REMARK  Name = =
REMARK  0 active torsions:
REMARK  status: ('A' for Active; 'I' for Inactive)
REMARK                            x       y       z     vdW  Elec       q    Type
REMARK                         _______ _______ _______ _____ _____    ______ ____
ROOT
ATOM      1  C   UNL     1     -13.364 -43.452  27.100  0.00  0.00    +0.199 C 
ATOM      2  N   UNL     1     -14.356 -43.046  27.912  0.00  0.00    -0.224 NA
ATOM      3  C   UNL     1     -15.550 -42.610  27.462  0.00  0.00    +0.085 C 
ATOM      4  C   UNL     1     -15.804 -42.565  26.107  0.00  0.00    +0.037 C 
ATOM      5  C   UNL     1     -17.025 -42.121  25.643  0.00  0.00    +0.003 C 
ATOM      6  C   UNL     1     -18.036 -41.707  26.486  0.00  0.00    +0.000 C 
ATOM      7  C   UNL     1     -17.779 -41.752  27.841  0.00  0.00    +0.002 C 
ATOM      8  C   UNL     1     -16.557 -42.197  28.314  0.00  0.00    +0.019 C 
ATOM      9  C   UNL     1     -14.783 -42.984  25.274  0.00  0.00    +0.102 C 
ATOM     10  N   UNL     1     -13.601 -43.412  25.777  0.00  0.00    -0.222 NA
ENDROOT
TORSDOF 0
