REMARK  Name = =
REMARK  3 active torsions:
REMARK  status: ('A' for Active; 'I' for Inactive)
REMARK    1  A    between atoms: C_1  and  C_27
REMARK    2  A    between atoms: C_1  and  S_32
REMARK    3  A    between atoms: S_32  and  C_33
REMARK                            x       y       z     vdW  Elec       q    Type
REMARK                         _______ _______ _______ _____ _____    ______ ____
ROOT
ATOM      1  C   UNL     1     -12.162 -44.272  30.239  0.00  0.00    +0.163 C 
ATOM      2  O   UNL     1     -13.378 -43.875  30.768  0.00  0.00    -0.343 OA
ATOM      3  C   UNL     1     -13.140 -43.323  32.032  0.00  0.00    +0.175 C 
ATOM      4  C   UNL     1     -12.328 -42.054  31.953  0.00  0.00    +0.174 C 
ATOM      5  O   UNL     1     -11.947 -41.722  33.255  0.00  0.00    -0.326 OA
ATOM      6  C   UNL     1     -10.706 -41.132  33.268  0.00  0.00    +0.264 C 
ATOM      7  O   UNL     1     -10.452 -40.309  34.330  0.00  0.00    -0.321 OA
ATOM      8  C   UNL     1      -9.383 -40.669  35.115  0.00  0.00    +0.209 C 
ATOM      9  C   UNL     1      -9.192 -42.136  35.221  0.00  0.00    +0.183 C 
ATOM     10  O   UNL     1      -9.116 -42.696  36.298  0.00  0.00    -0.293 OA
ATOM     11  C   UNL     1      -9.093 -42.917  33.960  0.00  0.00    +0.102 C 
ATOM     12  C   UNL     1      -9.583 -42.015  32.842  0.00  0.00    +0.179 C 
ATOM     13  O   UNL     1     -10.034 -42.793  31.771  0.00  0.00    -0.350 OA
ATOM     14  C   UNL     1     -11.104 -42.231  31.120  0.00  0.00    +0.148 C 
ATOM     15  C   UNL     1     -11.394 -43.034  29.873  0.00  0.00    +0.072 C 
ENDROOT
BRANCH   1  27
ATOM     16  C   UNL     1     -14.026 -43.809  27.813  0.00  0.00    +0.226 C 
ATOM     17  N   UNL     1     -15.220 -43.925  28.406  0.00  0.00    -0.213 NA
ATOM     18  C   UNL     1     -16.207 -43.029  28.274  0.00  0.00    +0.086 C 
ATOM     19  C   UNL     1     -15.999 -41.903  27.479  0.00  0.00    +0.037 C 
ATOM     20  C   UNL     1     -16.998 -40.963  27.321  0.00  0.00    +0.003 C 
ATOM     21  C   UNL     1     -18.218 -41.103  27.936  0.00  0.00    +0.000 C 
ATOM     22  C   UNL     1     -18.439 -42.208  28.725  0.00  0.00    +0.002 C 
ATOM     23  C   UNL     1     -17.437 -43.142  28.877  0.00  0.00    +0.019 C 
ATOM     24  C   UNL     1     -14.770 -41.780  26.867  0.00  0.00    +0.103 C 
ATOM     25  N   UNL     1     -13.814 -42.728  27.045  0.00  0.00    -0.212 NA
ATOM     26  N   UNL     1     -13.058 -44.828  28.014  0.00  0.00    -0.227 N 
ATOM     27  C   UNL     1     -12.304 -45.265  29.125  0.00  0.00    +0.118 C 
ATOM     28  C   UNL     1     -11.017 -45.761  28.566  0.00  0.00    +0.033 C 
ATOM     29  C   UNL     1     -11.413 -46.368  27.237  0.00  0.00    +0.088 C 
ATOM     30  C   UNL     1     -12.681 -45.680  26.912  0.00  0.00    +0.232 C 
ATOM     31  O   UNL     1     -13.318 -45.837  25.816  0.00  0.00    -0.274 OA
ENDBRANCH   1  27
BRANCH   1  32
ATOM     32  S   UNL     1     -11.244 -45.089  31.575  0.00  0.00    -0.009 S 
BRANCH  32  33
ATOM     33  C   UNL     1      -9.600 -45.483  31.104  0.00  0.00    +0.136 C 
ATOM     34  N   UNL     1      -8.503 -45.733  30.805  0.00  0.00    -0.184 NA
ENDBRANCH  32  33
ENDBRANCH   1  32
TORSDOF 3
