REMARK  Name = =
REMARK  0 active torsions:
REMARK  status: ('A' for Active; 'I' for Inactive)
REMARK                            x       y       z     vdW  Elec       q    Type
REMARK                         _______ _______ _______ _____ _____    ______ ____
ROOT
ATOM      1  C   UNL     1      51.147 155.775  29.177  0.00  0.00    +0.328 A 
ATOM      2  O   UNL     1      50.433 155.979  30.187  0.00  0.00    -0.247 OA
ATOM      3  N   UNL     1      52.047 156.713  28.843  0.00  0.00    -0.273 N 
ATOM      4  C   UNL     1      52.813 156.495  27.761  0.00  0.00    +0.281 A 
ATOM      5  O   UNL     1      53.667 157.347  27.414  0.00  0.00    -0.265 OA
ATOM      6  C   UNL     1      52.706 155.352  26.990  0.00  0.00    +0.168 A 
ATOM      7  C   UNL     1      51.763 154.395  27.360  0.00  0.00    +0.137 A 
ATOM      8  N   UNL     1      51.023 154.653  28.442  0.00  0.00    -0.294 N 
ATOM      9  N   UNL     1      51.848 153.388  26.467  0.00  0.00    -0.281 N 
ATOM     10  C   UNL     1      52.797 153.664  25.557  0.00  0.00    +0.165 C 
ATOM     11  N   UNL     1      53.312 154.880  25.897  0.00  0.00    -0.220 NA
ATOM     12  H   UNL     1      52.143 157.536  29.375  0.00  0.00    +0.173 HD
ATOM     13  H   UNL     1      50.351 153.988  28.717  0.00  0.00    +0.172 HD
ATOM     14  H   UNL     1      51.297 152.572  26.480  0.00  0.00    +0.155 HD
ENDROOT
TORSDOF 0
