REMARK  Name = =
REMARK  2 active torsions:
REMARK  status: ('A' for Active; 'I' for Inactive)
REMARK    1  A    between atoms: N_3  and  N_12
REMARK    2  A    between atoms: N_12  and  S_13
REMARK                            x       y       z     vdW  Elec       q    Type
REMARK                         _______ _______ _______ _____ _____    ______ ____
ROOT
ATOM      1  C   UNL     1      50.738 155.954  29.102  0.00  0.00    +0.349 A 
ATOM      2  O   UNL     1      49.888 156.276  29.989  0.00  0.00    -0.245 OA
ATOM      3  N   UNL     1      51.677 156.840  28.742  0.00  0.00    -0.158 N 
ATOM      4  C   UNL     1      52.567 156.485  27.798  0.00  0.00    +0.302 A 
ATOM      5  O   UNL     1      53.462 157.287  27.434  0.00  0.00    -0.263 OA
ATOM      6  C   UNL     1      52.538 155.240  27.195  0.00  0.00    +0.170 A 
ATOM      7  C   UNL     1      51.554 154.326  27.581  0.00  0.00    +0.137 A 
ATOM      8  N   UNL     1      50.687 154.727  28.527  0.00  0.00    -0.292 N 
ATOM      9  N   UNL     1      51.744 153.216  26.855  0.00  0.00    -0.281 N 
ATOM     10  C   UNL     1      52.808 153.416  26.038  0.00  0.00    +0.165 C 
ATOM     11  N   UNL     1      53.286 154.639  26.244  0.00  0.00    -0.220 NA
ATOM     12  H   UNL     1      49.983 154.102  28.815  0.00  0.00    +0.172 HD
ATOM     13  H   UNL     1      51.203 152.395  26.906  0.00  0.00    +0.155 HD
ENDROOT
BRANCH   3  14
ATOM     14  N   UNL     1      51.787 158.124  29.270  0.00  0.00    -0.153 N 
ATOM     15  H   UNL     1      52.619 158.621  29.098  0.00  0.00    +0.195 HD
BRANCH  14  16
ATOM     16  S   UNL     1      50.579 158.894  30.194  0.00  0.00    +0.046 S 
ATOM     17  O   UNL     1      49.876 159.881  29.309  0.00  0.00    -0.157 OA
ATOM     18  O   UNL     1      51.222 159.613  31.365  0.00  0.00    -0.157 OA
ATOM     19  H   UNL     1      49.690 157.984  30.676  0.00  0.00    +0.235 HD
ENDBRANCH  14  16
ENDBRANCH   3  14
TORSDOF 2
