REMARK  Name = =
REMARK  3 active torsions:
REMARK  status: ('A' for Active; 'I' for Inactive)
REMARK    1  A    between atoms: N_3  and  N_12
REMARK    2  A    between atoms: N_12  and  C_13
REMARK    3  A    between atoms: N_12  and  S_18
REMARK                            x       y       z     vdW  Elec       q    Type
REMARK                         _______ _______ _______ _____ _____    ______ ____
ROOT
ATOM      1  C   UNL     1      49.741 156.950  29.818  0.00  0.00    +0.349 A 
ATOM      2  O   UNL     1      48.590 157.001  30.359  0.00  0.00    -0.245 OA
ATOM      3  N   UNL     1      50.634 157.951  29.927  0.00  0.00    -0.153 N 
ATOM      4  C   UNL     1      51.819 157.729  29.282  0.00  0.00    +0.302 A 
ATOM      5  O   UNL     1      52.702 158.625  29.345  0.00  0.00    -0.263 OA
ATOM      6  C   UNL     1      52.096 156.584  28.570  0.00  0.00    +0.170 A 
ATOM      7  C   UNL     1      51.165 155.598  28.486  0.00  0.00    +0.137 A 
ATOM      8  N   UNL     1      50.000 155.812  29.120  0.00  0.00    -0.292 N 
ATOM      9  N   UNL     1      51.683 154.598  27.741  0.00  0.00    -0.281 N 
ATOM     10  C   UNL     1      52.925 154.934  27.353  0.00  0.00    +0.165 C 
ATOM     11  N   UNL     1      53.164 156.142  27.863  0.00  0.00    -0.220 NA
ATOM     12  H   UNL     1      49.305 155.116  29.078  0.00  0.00    +0.172 HD
ATOM     13  H   UNL     1      51.224 153.756  27.518  0.00  0.00    +0.155 HD
ENDROOT
BRANCH   3  14
ATOM     14  N   UNL     1      50.417 159.107  30.664  0.00  0.00    -0.100 N 
BRANCH  14  15
ATOM     15  C   UNL     1      49.211 159.395  31.383  0.00  0.00    +0.258 C 
ATOM     16  N   UNL     1      49.248 160.610  32.124  0.00  0.00    -0.222 NA
ATOM     17  C   UNL     1      48.321 161.382  31.708  0.00  0.00    +0.196 C 
ATOM     18  N   UNL     1      47.610 160.737  30.666  0.00  0.00    -0.224 NA
ATOM     19  C   UNL     1      48.088 159.576  30.438  0.00  0.00    +0.122 C 
ENDBRANCH  14  15
BRANCH  14  20
ATOM     20  S   UNL     1      51.681 160.297  30.770  0.00  0.00    +0.051 S 
ATOM     21  O   UNL     1      51.581 161.325  29.683  0.00  0.00    -0.156 OA
ATOM     22  O   UNL     1      51.558 160.984  32.124  0.00  0.00    -0.156 OA
ATOM     23  H   UNL     1      52.882 159.675  30.628  0.00  0.00    +0.235 HD
ENDBRANCH  14  20
ENDBRANCH   3  14
TORSDOF 3
