REMARK  Name = =
REMARK  4 active torsions:
REMARK  status: ('A' for Active; 'I' for Inactive)
REMARK    1  A    between atoms: N_3  and  N_12
REMARK    2  A    between atoms: N_12  and  C_13
REMARK    3  A    between atoms: N_12  and  S_20
REMARK    4  A    between atoms: C_13  and  C_18
REMARK                            x       y       z     vdW  Elec       q    Type
REMARK                         _______ _______ _______ _____ _____    ______ ____
ROOT
ATOM      1  C   UNL     1      49.795 157.266  30.367  0.00  0.00    +0.349 A 
ATOM      2  O   UNL     1      48.744 157.017  31.035  0.00  0.00    -0.245 OA
ATOM      3  N   UNL     1      50.237 158.510  30.188  0.00  0.00    -0.152 N 
ATOM      4  C   UNL     1      51.356 158.751  29.475  0.00  0.00    +0.302 A 
ATOM      5  O   UNL     1      51.745 159.934  29.324  0.00  0.00    -0.263 OA
ATOM      6  C   UNL     1      52.058 157.688  28.920  0.00  0.00    +0.170 A 
ATOM      7  C   UNL     1      51.586 156.428  29.119  0.00  0.00    +0.137 A 
ATOM      8  N   UNL     1      50.457 156.207  29.839  0.00  0.00    -0.292 N 
ATOM      9  N   UNL     1      52.432 155.597  28.491  0.00  0.00    -0.281 N 
ATOM     10  C   UNL     1      53.407 156.319  27.914  0.00  0.00    +0.165 C 
ATOM     11  N   UNL     1      53.161 157.608  28.190  0.00  0.00    -0.220 NA
ATOM     12  H   UNL     1      50.123 155.291  29.976  0.00  0.00    +0.172 HD
ATOM     13  H   UNL     1      52.351 154.616  28.458  0.00  0.00    +0.155 HD
ENDROOT
BRANCH   3  14
ATOM     14  N   UNL     1      49.569 159.596  30.723  0.00  0.00    -0.099 N 
BRANCH  14  15
ATOM     15  C   UNL     1      50.167 160.340  31.824  0.00  0.00    +0.251 C 
ATOM     16  N   UNL     1      50.051 161.757  31.638  0.00  0.00    -0.221 NA
ATOM     17  C   UNL     1      51.218 162.276  31.632  0.00  0.00    +0.196 C 
ATOM     18  N   UNL     1      52.187 161.252  31.812  0.00  0.00    -0.223 NA
ATOM     19  C   UNL     1      51.609 160.115  31.927  0.00  0.00    +0.124 C 
BRANCH  15  20
ATOM     20  C   UNL     1      49.499 159.994  33.120  0.00  0.00    +0.112 C 
ATOM     21  N   UNL     1      49.041 160.945  33.832  0.00  0.00    -0.298 NA
ATOM     22  H   UNL     1      48.597 160.749  34.689  0.00  0.00    +0.187 HD
ENDBRANCH  15  20
ENDBRANCH  14  15
BRANCH  14  23
ATOM     23  S   UNL     1      48.035 160.138  30.157  0.00  0.00    +0.051 S 
ATOM     24  O   UNL     1      48.072 161.573  29.716  0.00  0.00    -0.156 OA
ATOM     25  O   UNL     1      47.575 159.336  28.971  0.00  0.00    -0.156 OA
ATOM     26  H   UNL     1      47.185 159.988  31.208  0.00  0.00    +0.235 HD
ENDBRANCH  14  23
ENDBRANCH   3  14
TORSDOF 4
