REMARK  Name = =
REMARK  0 active torsions:
REMARK  status: ('A' for Active; 'I' for Inactive)
REMARK                            x       y       z     vdW  Elec       q    Type
REMARK                         _______ _______ _______ _____ _____    ______ ____
ROOT
ATOM      1  N   UNL     1      -4.200  -3.932  30.666  0.00  0.00    -0.242 NA
ATOM      2  C   UNL     1      -3.369  -3.079  30.221  0.00  0.00    +0.099 C 
ATOM      3  C   UNL     1      -1.983  -3.484  30.009  0.00  0.00    +0.019 C 
ATOM      4  C   UNL     1      -1.587  -4.773  30.288  0.00  0.00    +0.003 C 
ATOM      5  C   UNL     1      -0.253  -5.145  30.079  0.00  0.00    +0.000 C 
ATOM      6  C   UNL     1       0.599  -4.196  29.602  0.00  0.00    +0.000 C 
ATOM      7  C   UNL     1       0.223  -2.906  29.317  0.00  0.00    +0.000 C 
ATOM      8  C   UNL     1      -1.086  -2.540  29.522  0.00  0.00    +0.002 C 
ATOM      9  C   UNL     1      -2.544  -5.769  30.805  0.00  0.00    +0.021 C 
ATOM     10  C   UNL     1      -3.930  -5.301  30.999  0.00  0.00    +0.099 C 
ENDROOT
TORSDOF 0
