REMARK  Name = =
REMARK  0 active torsions:
REMARK  status: ('A' for Active; 'I' for Inactive)
REMARK                            x       y       z     vdW  Elec       q    Type
REMARK                         _______ _______ _______ _____ _____    ______ ____
ROOT
ATOM      1  N   UNL     1      -3.538  -6.513  30.310  0.00  0.00    -0.228 NA
ATOM      2  C   UNL     1      -2.269  -6.473  30.368  0.00  0.00    +0.142 C 
ATOM      3  C   UNL     1      -1.570  -6.783  31.631  0.00  0.00    +0.032 C 
ATOM      4  C   UNL     1      -2.318  -7.113  32.716  0.00  0.00    +0.004 C 
ATOM      5  C   UNL     1      -1.667  -7.388  33.943  0.00  0.00    +0.000 C 
ATOM      6  C   UNL     1      -0.295  -7.316  34.001  0.00  0.00    +0.000 C 
ATOM      7  C   UNL     1       0.465  -6.983  32.901  0.00  0.00    +0.000 C 
ATOM      8  C   UNL     1      -0.186  -6.717  31.713  0.00  0.00    +0.003 C 
ATOM      9  C   UNL     1      -3.772  -7.219  32.666  0.00  0.00    +0.021 C 
ATOM     10  C   UNL     1      -4.393  -6.838  31.390  0.00  0.00    +0.100 C 
ATOM     11  N   UNL     1      -1.462  -6.141  29.266  0.00  0.00    -0.204 N 
ATOM     12  C   UNL     1      -1.145  -6.908  28.211  0.00  0.00    +0.091 C 
ATOM     13  C   UNL     1      -0.323  -6.117  27.403  0.00  0.00    +0.082 C 
ATOM     14  N   UNL     1      -0.166  -4.917  27.978  0.00  0.00    -0.265 N 
ATOM     15  C   UNL     1      -0.866  -4.931  29.121  0.00  0.00    +0.316 C 
ATOM     16  O   UNL     1      -0.945  -3.962  29.926  0.00  0.00    -0.252 OA
ATOM     17  H   UNL     1       0.364  -4.166  27.627  0.00  0.00    +0.157 HD
ENDROOT
TORSDOF 0
