REMARK  Name = =
REMARK  1 active torsions:
REMARK  status: ('A' for Active; 'I' for Inactive)
REMARK    1  A    between atoms: C_10  and  N_17
REMARK                            x       y       z     vdW  Elec       q    Type
REMARK                         _______ _______ _______ _____ _____    ______ ____
ROOT
ATOM      1  N   UNL     1      -0.874  -4.623  30.450  0.00  0.00    -0.215 NA
ATOM      2  C   UNL     1      -1.992  -5.023  30.866  0.00  0.00    +0.144 C 
ATOM      3  C   UNL     1      -2.168  -6.435  31.204  0.00  0.00    +0.032 C 
ATOM      4  C   UNL     1      -1.095  -7.274  31.048  0.00  0.00    +0.005 C 
ATOM      5  C   UNL     1      -1.277  -8.597  31.382  0.00  0.00    +0.000 C 
ATOM      6  C   UNL     1      -2.514  -9.040  31.856  0.00  0.00    +0.000 C 
ATOM      7  C   UNL     1      -3.569  -8.172  31.999  0.00  0.00    +0.000 C 
ATOM      8  C   UNL     1      -3.396  -6.853  31.668  0.00  0.00    +0.003 C 
ATOM      9  C   UNL     1       0.228  -6.832  30.540  0.00  0.00    +0.034 C 
ATOM     10  C   UNL     1       0.323  -5.385  30.245  0.00  0.00    +0.133 C 
ATOM     11  N   UNL     1      -3.107  -4.147  31.019  0.00  0.00    -0.204 N 
ATOM     12  C   UNL     1      -3.612  -3.762  32.186  0.00  0.00    +0.091 C 
ATOM     13  C   UNL     1      -4.676  -2.920  31.906  0.00  0.00    +0.082 C 
ATOM     14  N   UNL     1      -4.787  -2.817  30.580  0.00  0.00    -0.265 N 
ATOM     15  C   UNL     1      -3.807  -3.584  30.039  0.00  0.00    +0.316 C 
ATOM     16  O   UNL     1      -3.660  -3.685  28.783  0.00  0.00    -0.252 OA
ATOM     17  H   UNL     1      -5.454  -2.285  30.088  0.00  0.00    +0.157 HD
ENDROOT
BRANCH  10  18
ATOM     18  N   UNL     1       0.816  -5.054  28.945  0.00  0.00    -0.293 N 
ATOM     19  C   UNL     1      -0.178  -5.013  27.916  0.00  0.00    +0.092 C 
ATOM     20  C   UNL     1      -0.245  -3.553  27.612  0.00  0.00    +0.023 C 
ATOM     21  C   UNL     1       0.811  -2.931  28.129  0.00  0.00    +0.023 C 
ATOM     22  C   UNL     1       1.673  -3.951  28.828  0.00  0.00    +0.092 C 
ENDBRANCH  10  18
TORSDOF 1
