REMARK  Name = =
REMARK  2 active torsions:
REMARK  status: ('A' for Active; 'I' for Inactive)
REMARK    1  A    between atoms: C_5  and  N_17
REMARK    2  A    between atoms: C_10  and  N_22
REMARK                            x       y       z     vdW  Elec       q    Type
REMARK                         _______ _______ _______ _____ _____    ______ ____
ROOT
ATOM      1  N   UNL     1      -2.130  -5.603  29.642  0.00  0.00    -0.215 NA
ATOM      2  C   UNL     1      -1.147  -6.101  30.232  0.00  0.00    +0.144 C 
ATOM      3  C   UNL     1       0.172  -5.495  29.989  0.00  0.00    +0.034 C 
ATOM      4  C   UNL     1       0.285  -4.420  29.145  0.00  0.00    +0.019 C 
ATOM      5  C   UNL     1       1.574  -3.899  28.904  0.00  0.00    +0.050 C 
ATOM      6  C   UNL     1       2.639  -4.502  29.533  0.00  0.00    +0.015 C 
ATOM      7  C   UNL     1       2.538  -5.576  30.380  0.00  0.00    +0.001 C 
ATOM      8  C   UNL     1       1.276  -6.066  30.599  0.00  0.00    +0.003 C 
ATOM      9  C   UNL     1      -0.888  -3.785  28.508  0.00  0.00    +0.036 C 
ATOM     10  C   UNL     1      -2.143  -4.498  28.739  0.00  0.00    +0.133 C 
ATOM     11  N   UNL     1      -1.272  -7.225  31.120  0.00  0.00    -0.204 N 
ATOM     12  C   UNL     1      -0.981  -7.237  32.434  0.00  0.00    +0.091 C 
ATOM     13  C   UNL     1      -1.230  -8.486  32.929  0.00  0.00    +0.082 C 
ATOM     14  N   UNL     1      -1.674  -9.234  31.909  0.00  0.00    -0.265 N 
ATOM     15  C   UNL     1      -1.695  -8.455  30.817  0.00  0.00    +0.316 C 
ATOM     16  O   UNL     1      -2.066  -8.853  29.676  0.00  0.00    -0.252 OA
ATOM     17  H   UNL     1      -1.937 -10.182  31.953  0.00  0.00    +0.157 HD
ENDROOT
BRANCH   5  18
ATOM     18  N   UNL     1       1.769  -2.804  28.060  0.00  0.00    -0.280 N 
ATOM     19  C   UNL     1       1.835  -1.376  28.249  0.00  0.00    +0.125 C 
ATOM     20  C   UNL     1       1.056  -0.925  27.004  0.00  0.00    +0.166 C 
ATOM     21  O   UNL     1       1.324  -1.859  26.039  0.00  0.00    -0.333 OA
ATOM     22  C   UNL     1       1.966  -2.946  26.605  0.00  0.00    +0.240 C 
ENDBRANCH   5  18
BRANCH  10  23
ATOM     23  N   UNL     1      -3.246  -3.644  29.153  0.00  0.00    -0.293 N 
ATOM     24  C   UNL     1      -4.165  -4.248  30.041  0.00  0.00    +0.092 C 
ATOM     25  C   UNL     1      -4.616  -3.135  30.946  0.00  0.00    +0.023 C 
ATOM     26  C   UNL     1      -3.837  -2.078  30.762  0.00  0.00    +0.023 C 
ATOM     27  C   UNL     1      -2.800  -2.399  29.717  0.00  0.00    +0.092 C 
ENDBRANCH  10  23
TORSDOF 2
