REMARK  Name = =
REMARK  3 active torsions:
REMARK  status: ('A' for Active; 'I' for Inactive)
REMARK    1  A    between atoms: C_5  and  N_17
REMARK    2  A    between atoms: C_10  and  N_22
REMARK    3  A    between atoms: C_26  and  S_27
REMARK                            x       y       z     vdW  Elec       q    Type
REMARK                         _______ _______ _______ _____ _____    ______ ____
ROOT
ATOM      1  N   UNL     1      -1.453  -4.428  29.415  0.00  0.00    -0.241 NA
ATOM      2  C   UNL     1      -1.860  -5.521  29.962  0.00  0.00    +0.139 C 
ATOM      3  C   UNL     1      -1.203  -6.761  29.595  0.00  0.00    +0.029 C 
ATOM      4  C   UNL     1      -0.135  -6.729  28.714  0.00  0.00    -0.003 C 
ATOM      5  C   UNL     1       0.388  -7.869  28.159  0.00  0.00    +0.046 C 
ATOM      6  C   UNL     1      -0.235  -9.064  28.552  0.00  0.00    +0.014 C 
ATOM      7  C   UNL     1      -1.290  -9.116  29.428  0.00  0.00    +0.001 C 
ATOM      8  C   UNL     1      -1.777  -7.951  29.954  0.00  0.00    +0.003 C 
ATOM      9  C   UNL     1       0.588  -5.421  28.490  0.00  0.00    +0.069 C 
ATOM     10  C   UNL     1      -0.396  -4.322  28.441  0.00  0.00    +0.169 C 
ATOM     11  N   UNL     1      -2.886  -5.464  30.983  0.00  0.00    -0.204 N 
ATOM     12  C   UNL     1      -2.838  -6.117  32.146  0.00  0.00    +0.091 C 
ATOM     13  C   UNL     1      -3.982  -5.754  32.857  0.00  0.00    +0.082 C 
ATOM     14  N   UNL     1      -4.661  -4.902  32.090  0.00  0.00    -0.265 N 
ATOM     15  C   UNL     1      -4.002  -4.726  30.956  0.00  0.00    +0.316 C 
ATOM     16  O   UNL     1      -4.343  -3.975  29.974  0.00  0.00    -0.252 OA
ATOM     17  H   UNL     1      -5.514  -4.473  32.328  0.00  0.00    +0.157 HD
ENDROOT
BRANCH   5  18
ATOM     18  N   UNL     1       1.499  -7.916  27.304  0.00  0.00    -0.280 N 
ATOM     19  C   UNL     1       1.675  -7.613  25.929  0.00  0.00    +0.125 C 
ATOM     20  C   UNL     1       2.657  -8.770  25.579  0.00  0.00    +0.166 C 
ATOM     21  O   UNL     1       3.561  -8.614  26.623  0.00  0.00    -0.333 OA
ATOM     22  C   UNL     1       2.830  -8.370  27.753  0.00  0.00    +0.240 C 
ENDBRANCH   5  18
BRANCH  10  23
ATOM     23  N   UNL     1       0.145  -2.990  28.425  0.00  0.00    -0.247 NA
ATOM     24  C   UNL     1      -0.883  -1.994  28.372  0.00  0.00    +0.075 C 
ATOM     25  C   UNL     1      -1.131  -1.820  26.903  0.00  0.00    +0.020 C 
ATOM     26  C   UNL     1      -0.093  -2.268  26.216  0.00  0.00    +0.029 C 
ATOM     27  C   UNL     1       0.904  -2.766  27.183  0.00  0.00    +0.113 C 
BRANCH  27  28
ATOM     28  S   UNL     1       2.143  -1.566  27.521  0.00  0.00    -0.079 S 
ATOM     29  O   UNL     1       3.522  -2.072  27.098  0.00  0.00    -0.173 OA
ATOM     30  C   UNL     1       1.982  -0.312  26.558  0.00  0.00    +0.077 C 
ATOM     31  H   UNL     1       2.025  -1.289  28.847  0.00  0.00    +0.115 HD
ENDBRANCH  27  28
ENDBRANCH  10  23
TORSDOF 3
