REMARK  Name = =
REMARK  6 active torsions:
REMARK  status: ('A' for Active; 'I' for Inactive)
REMARK    1  A    between atoms: N_1  and  C_32
REMARK    2  A    between atoms: C_3  and  C_6
REMARK    3  A    between atoms: C_12  and  O_27
REMARK    4  A    between atoms: C_15  and  O_26
REMARK    5  A    between atoms: C_29  and  N_38
REMARK    6  A    between atoms: C_48  and  S_49
REMARK                            x       y       z     vdW  Elec       q    Type
REMARK                         _______ _______ _______ _____ _____    ______ ____
ROOT
ATOM      1  N   UNL     1       3.153  -5.378  24.349  0.00  0.00    -0.280 N 
ATOM      2  C   UNL     1       2.032  -6.253  24.687  0.00  0.00    +0.123 C 
ATOM      3  C   UNL     1       2.262  -6.298  26.213  0.00  0.00    +0.141 C 
ATOM      4  O   UNL     1       3.628  -6.574  26.220  0.00  0.00    -0.335 OA
ATOM      5  C   UNL     1       4.218  -5.818  25.206  0.00  0.00    +0.240 C 
ENDROOT
BRANCH   3   6
ATOM      6  C   UNL     1       1.394  -7.324  26.804  0.00  0.00    +0.054 C 
ATOM      7  C   UNL     1       1.680  -8.748  26.453  0.00  0.00    +0.007 C 
ATOM      8  C   UNL     1       0.533  -9.642  26.873  0.00  0.00    +0.005 C 
ATOM      9  C   UNL     1      -0.431  -8.988  27.825  0.00  0.00    +0.029 C 
ATOM     10  C   UNL     1       0.274  -8.093  28.812  0.00  0.00    +0.011 A 
ATOM     11  C   UNL     1       1.214  -7.252  28.258  0.00  0.00    +0.013 A 
ATOM     12  C   UNL     1       1.917  -6.393  29.100  0.00  0.00    +0.133 A 
ATOM     13  C   UNL     1       1.659  -6.401  30.467  0.00  0.00    +0.078 A 
ATOM     14  C   UNL     1       0.707  -7.255  31.005  0.00  0.00    +0.078 A 
ATOM     15  C   UNL     1       0.014  -8.107  30.151  0.00  0.00    +0.133 A 
ATOM     16  C   UNL     1       0.426  -7.269  32.447  0.00  0.00    +0.199 C 
ATOM     17  O   UNL     1      -0.441  -8.053  32.903  0.00  0.00    -0.286 OA
ATOM     18  C   UNL     1       1.126  -6.395  33.362  0.00  0.00    +0.042 C 
ATOM     19  C   UNL     1       2.061  -5.549  32.865  0.00  0.00    +0.042 C 
ATOM     20  C   UNL     1       2.743  -4.707  33.707  0.00  0.00    +0.003 C 
ATOM     21  C   UNL     1       2.463  -4.734  35.067  0.00  0.00    +0.000 C 
ATOM     22  C   UNL     1       1.517  -5.584  35.600  0.00  0.00    +0.000 C 
ATOM     23  C   UNL     1       0.838  -6.430  34.722  0.00  0.00    +0.003 C 
ATOM     24  C   UNL     1       2.349  -5.531  31.414  0.00  0.00    +0.199 C 
ATOM     25  O   UNL     1       3.230  -4.723  31.012  0.00  0.00    -0.286 OA
BRANCH  15  26
ATOM     26  O   UNL     1      -0.916  -8.930  30.741  0.00  0.00    -0.506 OA
ATOM     27  H   UNL     1      -1.414  -9.526  30.217  0.00  0.00    +0.292 HD
ENDBRANCH  15  26
BRANCH  12  28
ATOM     28  O   UNL     1       2.850  -5.552  28.590  0.00  0.00    -0.506 OA
ATOM     29  H   UNL     1       3.023  -5.547  27.669  0.00  0.00    +0.292 HD
ENDBRANCH  12  28
ENDBRANCH   3   6
BRANCH   1  34
ATOM     30  N   UNL     1       1.158  -0.768  23.851  0.00  0.00    -0.215 NA
ATOM     31  C   UNL     1       1.870  -0.964  22.808  0.00  0.00    +0.144 C 
ATOM     32  C   UNL     1       2.605  -2.199  22.618  0.00  0.00    +0.034 C 
ATOM     33  C   UNL     1       2.523  -3.156  23.586  0.00  0.00    +0.019 C 
ATOM     34  C   UNL     1       3.183  -4.342  23.421  0.00  0.00    +0.050 C 
ATOM     35  C   UNL     1       3.926  -4.550  22.270  0.00  0.00    +0.015 C 
ATOM     36  C   UNL     1       4.042  -3.615  21.265  0.00  0.00    +0.001 C 
ATOM     37  C   UNL     1       3.360  -2.432  21.469  0.00  0.00    +0.003 C 
ATOM     38  C   UNL     1       1.765  -2.938  24.821  0.00  0.00    +0.036 C 
ATOM     39  C   UNL     1       0.983  -1.675  24.923  0.00  0.00    +0.134 C 
ATOM     40  N   UNL     1       1.204  -1.115  26.239  0.00  0.00    -0.285 N 
ATOM     41  C   UNL     1       2.666  -0.890  26.305  0.00  0.00    +0.093 C 
ATOM     42  C   UNL     1       3.085  -2.344  26.311  0.00  0.00    +0.024 C 
ATOM     43  C   UNL     1       2.141  -3.058  26.921  0.00  0.00    +0.033 C 
ATOM     44  C   UNL     1       1.110  -2.057  27.309  0.00  0.00    +0.128 C 
BRANCH  31  45
ATOM     45  N   UNL     1       1.936   0.044  21.828  0.00  0.00    -0.204 N 
ATOM     46  C   UNL     1       2.900   1.006  21.851  0.00  0.00    +0.091 C 
ATOM     47  C   UNL     1       2.711   1.832  20.789  0.00  0.00    +0.082 C 
ATOM     48  N   UNL     1       1.632   1.355  20.138  0.00  0.00    -0.265 N 
ATOM     49  C   UNL     1       1.150   0.266  20.760  0.00  0.00    +0.316 C 
ATOM     50  O   UNL     1       0.164  -0.449  20.454  0.00  0.00    -0.252 OA
ATOM     51  H   UNL     1       1.250   1.749  19.321  0.00  0.00    +0.157 HD
ENDBRANCH  31  45
BRANCH  44  52
ATOM     52  S   UNL     1      -0.438  -2.683  27.703  0.00  0.00    -0.076 S 
ATOM     53  O   UNL     1      -0.728  -4.059  27.162  0.00  0.00    -0.173 OA
ATOM     54  C   UNL     1      -0.703  -2.902  29.258  0.00  0.00    +0.078 C 
ATOM     55  H   UNL     1      -1.210  -1.708  27.152  0.00  0.00    +0.115 HD
ENDBRANCH  44  52
ENDBRANCH   1  34
TORSDOF 6
