REMARK  Name = =
REMARK  8 active torsions:
REMARK  status: ('A' for Active; 'I' for Inactive)
REMARK    1  A    between atoms: C_1  and  C_3
REMARK    2  A    between atoms: C_1  and  C_16
REMARK    3  A    between atoms: C_2  and  C_26
REMARK    4  A    between atoms: C_5  and  N_9
REMARK    5  A    between atoms: C_15  and  C_17
REMARK    6  A    between atoms: C_19  and  N_22
REMARK    7  A    between atoms: N_22  and  S_23
REMARK    8  A    between atoms: C_26  and  O_28
REMARK                            x       y       z     vdW  Elec       q    Type
REMARK                         _______ _______ _______ _____ _____    ______ ____
ROOT
ATOM      1  C   UNL     1       2.694  -4.155  24.290  0.00  0.00    +0.101 C 
ATOM      2  C   UNL     1       3.517  -5.006  23.731  0.00  0.00    +0.095 C 
ENDROOT
BRANCH   1   3
ATOM      3  C   UNL     1       2.134  -3.061  23.467  0.00  0.00    +0.231 C 
ATOM      4  N   UNL     1       2.518  -2.716  22.289  0.00  0.00    -0.218 NA
ATOM      5  C   UNL     1       1.773  -1.620  21.764  0.00  0.00    +0.217 C 
ATOM      6  C   UNL     1       1.070  -1.070  22.985  0.00  0.00    +0.255 C 
ATOM      7  I   UNL     1      -0.931  -0.575  22.443  0.00  0.00    -0.023 I 
ATOM      8  O   UNL     1       1.101  -2.224  23.832  0.00  0.00    -0.449 OA
BRANCH   5   9
ATOM      9  N   UNL     1       2.566  -0.675  21.068  0.00  0.00    -0.248 NA
ATOM     10  C   UNL     1       3.606  -0.054  21.786  0.00  0.00    +0.091 C 
ATOM     11  C   UNL     1       3.465   1.421  21.992  0.00  0.00    +0.086 C 
ATOM     12  N   UNL     1       3.118   2.082  20.775  0.00  0.00    -0.295 NA
ATOM     13  C   UNL     1       1.919   1.540  20.226  0.00  0.00    +0.086 C 
ATOM     14  C   UNL     1       1.973   0.049  20.017  0.00  0.00    +0.091 C 
ATOM     15  H   UNL     1       3.876   1.964  20.103  0.00  0.00    +0.123 HD
ENDBRANCH   5   9
ENDBRANCH   1   3
BRANCH   1  17
ATOM     16  C   UNL     1       1.950  -4.267  26.815  0.00  0.00    -0.021 C 
ATOM     17  C   UNL     1       2.302  -4.218  25.661  0.00  0.00    -0.052 C 
BRANCH  16  18
ATOM     18  C   UNL     1       1.517  -4.322  28.206  0.00  0.00    +0.204 C 
ATOM     19  N   UNL     1       1.968  -5.112  29.121  0.00  0.00    -0.223 NA
ATOM     20  C   UNL     1       1.305  -4.887  30.388  0.00  0.00    +0.222 C 
ATOM     21  C   UNL     1       0.353  -3.788  30.037  0.00  0.00    +0.117 C 
ATOM     22  N   UNL     1       0.517  -3.508  28.789  0.00  0.00    -0.219 NA
BRANCH  20  23
ATOM     23  N   UNL     1       2.233  -4.340  31.382  0.00  0.00    -0.161 NA
ATOM     24  H   UNL     1       1.843  -3.487  31.783  0.00  0.00    +0.151 HD
BRANCH  23  25
ATOM     25  S   UNL     1       2.466  -5.512  32.624  0.00  0.00    +0.022 S 
ATOM     26  O   UNL     1       2.310  -6.912  32.092  0.00  0.00    -0.161 OA
ATOM     27  O   UNL     1       3.837  -5.274  33.194  0.00  0.00    -0.161 OA
ATOM     28  H   UNL     1       1.524  -5.384  33.597  0.00  0.00    +0.229 HD
ENDBRANCH  23  25
ENDBRANCH  20  23
ENDBRANCH  16  18
ENDBRANCH   1  17
BRANCH   2  29
ATOM     29  C   UNL     1       4.094  -6.093  24.496  0.00  0.00    +0.339 C 
ATOM     30  O   UNL     1       4.886  -6.933  23.999  0.00  0.00    -0.245 OA
BRANCH  29  31
ATOM     31  O   UNL     1       3.802  -6.283  25.859  0.00  0.00    -0.477 OA
ATOM     32  H   UNL     1       3.219  -5.696  26.299  0.00  0.00    +0.295 HD
ENDBRANCH  29  31
ENDBRANCH   2  29
TORSDOF 8
