REMARK  Name = =
REMARK  0 active torsions:
REMARK  status: ('A' for Active; 'I' for Inactive)
REMARK                            x       y       z     vdW  Elec       q    Type
REMARK                         _______ _______ _______ _____ _____    ______ ____
ROOT
ATOM      1  C   UNL     1      52.223 156.554  27.884  0.00  0.00    +0.099 C 
ATOM      2  C   UNL     1      52.773 155.722  26.926  0.00  0.00    +0.022 C 
ATOM      3  C   UNL     1      52.724 154.351  27.119  0.00  0.00    +0.022 C 
ATOM      4  C   UNL     1      52.122 153.862  28.271  0.00  0.00    +0.022 C 
ATOM      5  C   UNL     1      51.590 154.728  29.194  0.00  0.00    +0.099 C 
ATOM      6  N   UNL     1      51.634 156.060  29.010  0.00  0.00    -0.242 NA
ATOM      7  C   UNL     1      53.274 153.537  26.160  0.00  0.00    +0.099 C 
ATOM      8  N   UNL     1      53.850 154.063  25.052  0.00  0.00    -0.242 NA
ATOM      9  C   UNL     1      53.919 155.387  24.827  0.00  0.00    +0.099 C 
ATOM     10  C   UNL     1      53.369 156.216  25.784  0.00  0.00    +0.022 C 
ENDROOT
TORSDOF 0
