REMARK  Name = =
REMARK  3 active torsions:
REMARK  status: ('A' for Active; 'I' for Inactive)
REMARK    1  A    between atoms: N_1  and  C_6
REMARK    2  A    between atoms: C_5  and  C_16
REMARK    3  A    between atoms: C_17  and  C_22
REMARK                            x       y       z     vdW  Elec       q    Type
REMARK                         _______ _______ _______ _____ _____    ______ ____
ROOT
ATOM      1  N   UNL     1      50.372 156.770  29.600  0.00  0.00    -0.174 N 
ATOM      2  N   UNL     1      49.058 156.485  29.539  0.00  0.00    -0.037 NA
ATOM      3  N   UNL     1      48.387 157.572  29.814  0.00  0.00    -0.022 NA
ATOM      4  N   UNL     1      49.228 158.544  30.048  0.00  0.00    -0.108 NA
ATOM      5  C   UNL     1      50.476 158.047  29.916  0.00  0.00    +0.190 A 
ENDROOT
BRANCH   1   6
ATOM      6  C   UNL     1      51.361 155.765  29.310  0.00  0.00    +0.167 C 
ATOM      7  C   UNL     1      51.883 155.621  28.041  0.00  0.00    +0.039 C 
ATOM      8  C   UNL     1      52.810 154.618  27.809  0.00  0.00    +0.024 C 
ATOM      9  C   UNL     1      53.184 153.794  28.854  0.00  0.00    +0.022 C 
ATOM     10  C   UNL     1      52.618 154.002  30.089  0.00  0.00    +0.101 C 
ATOM     11  N   UNL     1      51.722 154.968  30.325  0.00  0.00    -0.225 NA
ATOM     12  C   UNL     1      53.330 154.485  26.538  0.00  0.00    +0.099 C 
ATOM     13  N   UNL     1      52.949 155.313  25.530  0.00  0.00    -0.242 NA
ATOM     14  C   UNL     1      52.050 156.283  25.764  0.00  0.00    +0.099 C 
ATOM     15  C   UNL     1      51.502 156.458  27.010  0.00  0.00    +0.024 C 
ENDBRANCH   1   6
BRANCH   5  16
ATOM     16  C   UNL     1      51.689 158.839  30.070  0.00  0.00    +0.038 C 
ATOM     17  C   UNL     1      51.612 159.989  30.837  0.00  0.00    +0.003 C 
ATOM     18  C   UNL     1      52.758 160.745  30.956  0.00  0.00    +0.000 C 
ATOM     19  C   UNL     1      53.946 160.405  30.353  0.00  0.00    +0.000 C 
ATOM     20  C   UNL     1      54.002 159.262  29.595  0.00  0.00    +0.000 C 
ATOM     21  C   UNL     1      52.861 158.477  29.457  0.00  0.00    +0.003 C 
BRANCH  17  22
ATOM     22  C   UNL     1      50.390 160.419  31.468  0.00  0.00    +0.000 C 
ATOM     23  C   UNL     1      49.868 161.684  31.281  0.00  0.00    +0.000 C 
ATOM     24  C   UNL     1      48.718 162.115  31.875  0.00  0.00    +0.000 C 
ATOM     25  C   UNL     1      48.018 161.259  32.713  0.00  0.00    +0.000 C 
ATOM     26  C   UNL     1      48.515 159.978  32.923  0.00  0.00    +0.000 C 
ATOM     27  C   UNL     1      49.675 159.563  32.315  0.00  0.00    +0.000 C 
ENDBRANCH  17  22
ENDBRANCH   5  16
TORSDOF 3
