REMARK  Name = =
REMARK  4 active torsions:
REMARK  status: ('A' for Active; 'I' for Inactive)
REMARK    1  A    between atoms: C_1  and  C_22
REMARK    2  A    between atoms: C_2  and  C_7
REMARK    3  A    between atoms: C_8  and  C_13
REMARK    4  A    between atoms: N_18  and  C_23
REMARK                            x       y       z     vdW  Elec       q    Type
REMARK                         _______ _______ _______ _____ _____    ______ ____
ROOT
ATOM      1  C   UNL     1      51.663 158.350  29.853  0.00  0.00    +0.038 C 
ATOM      2  C   UNL     1      51.567 159.580  30.528  0.00  0.00    +0.003 C 
ATOM      3  C   UNL     1      52.688 160.398  30.617  0.00  0.00    +0.000 C 
ATOM      4  C   UNL     1      53.909 160.065  30.074  0.00  0.00    +0.000 C 
ATOM      5  C   UNL     1      54.006 158.862  29.415  0.00  0.00    +0.000 C 
ATOM      6  C   UNL     1      52.884 158.046  29.325  0.00  0.00    +0.003 C 
ENDROOT
BRANCH   2   7
ATOM      7  C   UNL     1      50.323 159.997  31.146  0.00  0.00    +0.001 C 
ATOM      8  C   UNL     1      49.303 160.468  30.373  0.00  0.00    +0.034 C 
ATOM      9  C   UNL     1      48.126 160.879  30.967  0.00  0.00    +0.001 C 
ATOM     10  C   UNL     1      47.928 160.834  32.331  0.00  0.00    -0.000 C 
ATOM     11  C   UNL     1      48.968 160.353  33.115  0.00  0.00    -0.000 C 
ATOM     12  C   UNL     1      50.159 159.939  32.510  0.00  0.00    -0.000 C 
BRANCH   8  13
ATOM     13  C   UNL     1      49.478 160.540  28.907  0.00  0.00    +0.260 C 
ATOM     14  O   UNL     1      48.361 159.970  28.312  0.00  0.00    -0.324 OA
ATOM     15  C   UNL     1      47.872 160.853  27.376  0.00  0.00    +0.177 C 
ATOM     16  C   UNL     1      49.052 161.790  27.175  0.00  0.00    +0.177 C 
ATOM     17  O   UNL     1      49.572 161.854  28.459  0.00  0.00    -0.324 OA
ENDBRANCH   8  13
ENDBRANCH   2   7
BRANCH   1  22
ATOM     18  N   UNL     1      50.345 156.248  29.495  0.00  0.00    -0.174 N 
ATOM     19  N   UNL     1      49.043 155.885  29.562  0.00  0.00    -0.037 NA
ATOM     20  N   UNL     1      48.373 156.954  29.896  0.00  0.00    -0.022 NA
ATOM     21  N   UNL     1      49.221 157.957  30.035  0.00  0.00    -0.108 NA
ATOM     22  C   UNL     1      50.498 157.528  29.782  0.00  0.00    +0.190 A 
BRANCH  18  23
ATOM     23  C   UNL     1      51.339 155.304  29.160  0.00  0.00    +0.167 C 
ATOM     24  C   UNL     1      52.038 155.480  27.990  0.00  0.00    +0.039 C 
ATOM     25  C   UNL     1      53.013 154.614  27.555  0.00  0.00    +0.024 C 
ATOM     26  C   UNL     1      53.317 153.498  28.337  0.00  0.00    +0.022 C 
ATOM     27  C   UNL     1      52.604 153.346  29.502  0.00  0.00    +0.101 C 
ATOM     28  N   UNL     1      51.651 154.219  29.898  0.00  0.00    -0.225 NA
ATOM     29  C   UNL     1      53.694 154.808  26.391  0.00  0.00    +0.099 C 
ATOM     30  N   UNL     1      53.391 155.903  25.631  0.00  0.00    -0.242 NA
ATOM     31  C   UNL     1      52.447 156.788  26.000  0.00  0.00    +0.099 C 
ATOM     32  C   UNL     1      51.768 156.577  27.182  0.00  0.00    +0.024 C 
ENDBRANCH  18  23
ENDBRANCH   1  22
TORSDOF 4
