REMARK  Name = =
REMARK  5 active torsions:
REMARK  status: ('A' for Active; 'I' for Inactive)
REMARK    1  A    between atoms: C_1  and  C_28
REMARK    2  A    between atoms: C_2  and  C_7
REMARK    3  A    between atoms: C_8  and  C_13
REMARK    4  A    between atoms: C_13  and  C_18
REMARK    5  A    between atoms: N_24  and  C_29
REMARK                            x       y       z     vdW  Elec       q    Type
REMARK                         _______ _______ _______ _____ _____    ______ ____
ROOT
ATOM      1  C   UNL     1      49.672 158.123  29.386  0.00  0.00    +0.038 C 
ATOM      2  C   UNL     1      50.807 157.401  29.507  0.00  0.00    +0.003 C 
ATOM      3  C   UNL     1      50.690 156.055  29.946  0.00  0.00    +0.000 C 
ATOM      4  C   UNL     1      49.496 155.465  30.245  0.00  0.00    +0.000 C 
ATOM      5  C   UNL     1      48.331 156.202  30.120  0.00  0.00    +0.000 C 
ATOM      6  C   UNL     1      48.452 157.491  29.700  0.00  0.00    +0.003 C 
ENDROOT
BRANCH   2   7
ATOM      7  C   UNL     1      52.165 157.853  29.221  0.00  0.00    +0.001 C 
ATOM      8  C   UNL     1      53.007 157.241  28.340  0.00  0.00    +0.031 C 
ATOM      9  C   UNL     1      54.307 157.765  28.155  0.00  0.00    +0.000 C 
ATOM     10  C   UNL     1      54.762 158.863  28.829  0.00  0.00    -0.000 C 
ATOM     11  C   UNL     1      53.906 159.468  29.718  0.00  0.00    -0.000 C 
ATOM     12  C   UNL     1      52.645 158.969  29.901  0.00  0.00    -0.000 C 
BRANCH   8  13
ATOM     13  C   UNL     1      52.714 155.994  27.632  0.00  0.00    +0.233 C 
ATOM     14  O   UNL     1      51.340 155.716  27.578  0.00  0.00    -0.326 OA
ATOM     15  C   UNL     1      51.188 154.344  27.640  0.00  0.00    +0.177 C 
ATOM     16  C   UNL     1      52.441 153.831  28.288  0.00  0.00    +0.177 C 
ATOM     17  O   UNL     1      53.181 154.933  28.515  0.00  0.00    -0.326 OA
BRANCH  13  18
ATOM     18  C   UNL     1      53.313 155.670  26.338  0.00  0.00    +0.171 C 
ATOM     19  O   UNL     1      54.231 156.556  25.833  0.00  0.00    -0.351 OA
ATOM     20  C   UNL     1      55.174 155.872  25.058  0.00  0.00    +0.142 C 
ATOM     21  C   UNL     1      54.515 155.158  23.913  0.00  0.00    +0.032 C 
ATOM     22  C   UNL     1      53.430 154.218  24.416  0.00  0.00    +0.005 C 
ATOM     23  C   UNL     1      52.467 155.095  25.252  0.00  0.00    +0.035 C 
ENDBRANCH  13  18
ENDBRANCH   8  13
ENDBRANCH   2   7
BRANCH   1  28
ATOM     24  N   UNL     1      49.788 160.664  29.337  0.00  0.00    -0.174 N 
ATOM     25  N   UNL     1      49.277 161.561  28.431  0.00  0.00    -0.037 NA
ATOM     26  N   UNL     1      48.707 160.933  27.467  0.00  0.00    -0.022 NA
ATOM     27  N   UNL     1      48.800 159.672  27.662  0.00  0.00    -0.108 NA
ATOM     28  C   UNL     1      49.500 159.478  28.871  0.00  0.00    +0.190 A 
BRANCH  24  29
ATOM     29  C   UNL     1      50.401 161.147  30.510  0.00  0.00    +0.167 C 
ATOM     30  C   UNL     1      49.721 161.207  31.709  0.00  0.00    +0.039 C 
ATOM     31  C   UNL     1      50.304 161.707  32.863  0.00  0.00    +0.024 C 
ATOM     32  C   UNL     1      51.624 162.166  32.815  0.00  0.00    +0.022 C 
ATOM     33  C   UNL     1      52.276 162.095  31.611  0.00  0.00    +0.101 C 
ATOM     34  N   UNL     1      51.680 161.605  30.513  0.00  0.00    -0.225 NA
ATOM     35  C   UNL     1      49.629 161.775  34.063  0.00  0.00    +0.099 C 
ATOM     36  N   UNL     1      48.362 161.339  34.103  0.00  0.00    -0.242 NA
ATOM     37  C   UNL     1      47.744 160.845  33.017  0.00  0.00    +0.099 C 
ATOM     38  C   UNL     1      48.401 160.769  31.809  0.00  0.00    +0.024 C 
ENDBRANCH  24  29
ENDBRANCH   1  28
TORSDOF 5
