REMARK  Name = =
REMARK  7 active torsions:
REMARK  status: ('A' for Active; 'I' for Inactive)
REMARK    1  A    between atoms: N_1  and  C_16
REMARK    2  A    between atoms: N_1  and  N_25
REMARK    3  A    between atoms: C_2  and  O_12
REMARK    4  A    between atoms: O_12  and  S_13
REMARK    5  A    between atoms: S_13  and  O_15
REMARK    6  A    between atoms: C_18  and  N_22
REMARK    7  A    between atoms: C_26  and  O_28
REMARK                            x       y       z     vdW  Elec       q    Type
REMARK                         _______ _______ _______ _____ _____    ______ ____
ROOT
ATOM      1  N   UNL     1      -1.715  -5.013  30.828  0.00  0.00    -0.198 N 
ATOM      2  C   UNL     1      -0.591  -3.787  27.611  0.00  0.00    +0.276 C 
ATOM      3  N   UNL     1      -1.406  -4.173  28.605  0.00  0.00    -0.192 NA
ATOM      4  C   UNL     1      -0.877  -4.601  29.764  0.00  0.00    +0.155 C 
ATOM      5  C   UNL     1       0.489  -4.650  29.948  0.00  0.00    +0.038 C 
ATOM      6  C   UNL     1       1.365  -4.257  28.938  0.00  0.00    +0.025 C 
ATOM      7  C   UNL     1       0.788  -3.824  27.762  0.00  0.00    +0.137 C 
ATOM      8  N   UNL     1       1.576  -3.430  26.748  0.00  0.00    -0.239 NA
ATOM      9  C   UNL     1       2.911  -3.468  26.902  0.00  0.00    +0.099 C 
ATOM     10  C   UNL     1       3.526  -3.895  28.063  0.00  0.00    +0.021 C 
ATOM     11  C   UNL     1       2.738  -4.305  29.119  0.00  0.00    +0.003 C 
ENDROOT
BRANCH   1  12
ATOM     12  C   UNL     1      -2.908  -4.271  31.145  0.00  0.00    +0.073 C 
ATOM     13  C   UNL     1      -3.000  -2.955  30.767  0.00  0.00    +0.041 C 
ATOM     14  C   UNL     1      -4.152  -2.241  31.074  0.00  0.00    +0.144 C 
ATOM     15  C   UNL     1      -5.189  -2.867  31.757  0.00  0.00    +0.024 C 
ATOM     16  C   UNL     1      -5.112  -4.184  32.143  0.00  0.00    +0.003 C 
ATOM     17  C   UNL     1      -3.957  -4.867  31.824  0.00  0.00    +0.017 C 
BRANCH  14  18
ATOM     18  N   UNL     1      -4.274  -0.881  30.697  0.00  0.00    +0.058 N 
ATOM     19  O   UNL     1      -3.498  -0.367  29.694  0.00  0.00    -0.126 OA
ATOM     20  O   UNL     1      -5.088  -0.153  31.276  0.00  0.00    -0.126 OA
ENDBRANCH  14  18
ENDBRANCH   1  12
BRANCH   1  21
ATOM     21  N   UNL     1      -1.431  -6.128  31.598  0.00  0.00    -0.193 N 
ATOM     22  C   UNL     1      -1.697  -7.418  31.054  0.00  0.00    +0.415 C 
ATOM     23  O   UNL     1      -2.178  -7.501  29.895  0.00  0.00    -0.225 OA
ATOM     24  H   UNL     1      -1.053  -6.032  32.502  0.00  0.00    +0.177 HD
BRANCH  22  25
ATOM     25  O   UNL     1      -1.451  -8.595  31.740  0.00  0.00    -0.465 OA
ATOM     26  H   UNL     1      -1.093  -8.567  32.605  0.00  0.00    +0.297 HD
ENDBRANCH  22  25
ENDBRANCH   1  21
BRANCH   2  27
ATOM     27  O   UNL     1      -1.084  -3.329  26.375  0.00  0.00    -0.315 OA
BRANCH  27  28
ATOM     28  S   UNL     1      -1.823  -1.751  26.423  0.00  0.00    +0.192 S 
ATOM     29  O   UNL     1      -1.018  -0.848  27.355  0.00  0.00    -0.125 OA
BRANCH  28  30
ATOM     30  O   UNL     1      -2.012  -1.097  24.888  0.00  0.00    -0.236 OA
ATOM     31  H   UNL     1      -2.528  -1.707  24.338  0.00  0.00    +0.246 HD
ENDBRANCH  28  30
ENDBRANCH  27  28
ENDBRANCH   2  27
TORSDOF 7
