REMARK  Name = =
REMARK  8 active torsions:
REMARK  status: ('A' for Active; 'I' for Inactive)
REMARK    1  A    between atoms: N_1  and  C_16
REMARK    2  A    between atoms: N_1  and  N_31
REMARK    3  A    between atoms: C_2  and  O_12
REMARK    4  A    between atoms: O_12  and  S_13
REMARK    5  A    between atoms: S_13  and  O_15
REMARK    6  A    between atoms: C_17  and  C_22
REMARK    7  A    between atoms: C_18  and  N_28
REMARK    8  A    between atoms: C_32  and  O_34
REMARK                            x       y       z     vdW  Elec       q    Type
REMARK                         _______ _______ _______ _____ _____    ______ ____
ROOT
ATOM      1  N   UNL     1       0.957  -6.185  29.749  0.00  0.00    -0.198 N 
ATOM      2  C   UNL     1      -1.188  -3.272  29.956  0.00  0.00    +0.276 C 
ATOM      3  N   UNL     1      -0.199  -4.113  29.721  0.00  0.00    -0.192 NA
ATOM      4  C   UNL     1      -0.217  -5.446  30.081  0.00  0.00    +0.155 C 
ATOM      5  C   UNL     1      -1.332  -5.880  30.711  0.00  0.00    +0.038 C 
ATOM      6  C   UNL     1      -2.401  -5.021  30.976  0.00  0.00    +0.025 C 
ATOM      7  C   UNL     1      -2.340  -3.673  30.593  0.00  0.00    +0.137 C 
ATOM      8  N   UNL     1      -3.373  -2.815  30.823  0.00  0.00    -0.239 NA
ATOM      9  C   UNL     1      -4.481  -3.292  31.442  0.00  0.00    +0.099 C 
ATOM     10  C   UNL     1      -4.602  -4.601  31.844  0.00  0.00    +0.021 C 
ATOM     11  C   UNL     1      -3.544  -5.449  31.600  0.00  0.00    +0.003 C 
ENDROOT
BRANCH   1  12
ATOM     12  C   UNL     1       1.131  -7.144  28.778  0.00  0.00    +0.072 C 
ATOM     13  C   UNL     1       2.066  -7.006  27.719  0.00  0.00    +0.046 C 
ATOM     14  C   UNL     1       2.213  -7.967  26.774  0.00  0.00    +0.143 C 
ATOM     15  C   UNL     1       1.403  -9.131  26.822  0.00  0.00    +0.024 C 
ATOM     16  C   UNL     1       0.489  -9.262  27.837  0.00  0.00    +0.003 C 
ATOM     17  C   UNL     1       0.347  -8.297  28.803  0.00  0.00    +0.016 C 
BRANCH  13  18
ATOM     18  C   UNL     1       2.717  -5.699  27.615  0.00  0.00    +0.162 C 
ATOM     19  O   UNL     1       4.056  -5.833  28.021  0.00  0.00    -0.347 OA
ATOM     20  C   UNL     1       4.538  -4.501  28.122  0.00  0.00    +0.148 C 
ATOM     21  C   UNL     1       4.906  -4.122  26.696  0.00  0.00    +0.058 C 
ATOM     22  C   UNL     1       3.760  -4.294  25.758  0.00  0.00    -0.025 C 
ATOM     23  C   UNL     1       2.623  -5.092  26.261  0.00  0.00    +0.003 C 
ENDBRANCH  13  18
BRANCH  14  24
ATOM     24  N   UNL     1       3.185  -8.040  25.769  0.00  0.00    +0.057 N 
ATOM     25  O   UNL     1       4.495  -8.241  26.041  0.00  0.00    -0.126 OA
ATOM     26  O   UNL     1       2.893  -7.917  24.535  0.00  0.00    -0.126 OA
ENDBRANCH  14  24
ENDBRANCH   1  12
BRANCH   1  27
ATOM     27  N   UNL     1       2.009  -5.917  30.694  0.00  0.00    -0.193 N 
ATOM     28  C   UNL     1       2.040  -6.561  31.948  0.00  0.00    +0.415 C 
ATOM     29  O   UNL     1       1.187  -7.381  32.304  0.00  0.00    -0.225 OA
ATOM     30  H   UNL     1       2.718  -5.274  30.461  0.00  0.00    +0.177 HD
BRANCH  28  31
ATOM     31  O   UNL     1       3.065  -6.299  32.877  0.00  0.00    -0.465 OA
ATOM     32  H   UNL     1       3.742  -5.687  32.667  0.00  0.00    +0.297 HD
ENDBRANCH  28  31
ENDBRANCH   1  27
BRANCH   2  33
ATOM     33  O   UNL     1      -1.053  -1.936  29.541  0.00  0.00    -0.315 OA
BRANCH  33  34
ATOM     34  S   UNL     1      -1.878  -1.306  28.194  0.00  0.00    +0.192 S 
ATOM     35  O   UNL     1      -0.985  -1.056  26.976  0.00  0.00    -0.125 OA
BRANCH  34  36
ATOM     36  O   UNL     1      -2.698   0.108  28.653  0.00  0.00    -0.236 OA
ATOM     37  H   UNL     1      -3.170   0.471  27.887  0.00  0.00    +0.246 HD
ENDBRANCH  34  36
ENDBRANCH  33  34
ENDBRANCH   2  33
TORSDOF 8
