MODEL 1
REMARK VINA RESULT:    -7.458      0.000      0.000
REMARK INTER + INTRA:          -6.581
REMARK INTER:                 -11.163
REMARK INTRA:                   4.583
REMARK UNBOUND:                 4.583
REMARK  Name = =
REMARK  10 active torsions:
REMARK  status: ('A' for Active; 'I' for Inactive)
REMARK    1  A    between atoms: C_1  and  C_7
REMARK    2  A    between atoms: C_1  and  C_27
REMARK    3  A    between atoms: C_2  and  C_38
REMARK    4  A    between atoms: C_6  and  C_35
REMARK    5  A    between atoms: C_8  and  C_17
REMARK    6  A    between atoms: C_17  and  O_22
REMARK    7  A    between atoms: O_22  and  C_23
REMARK    8  A    between atoms: N_25  and  O_26
REMARK    9  A    between atoms: C_35  and  O_37
REMARK   10  A    between atoms: C_38  and  O_40
REMARK                            x       y       z     vdW  Elec       q    Type
REMARK                         _______ _______ _______ _____ _____    ______ ____
ROOT
ATOM      1  C   UNL     1     -22.499 -42.250  24.915  0.00  0.00    +0.082 C 
ATOM      2  C   UNL     1     -23.044 -43.655  24.813  0.00  0.00    +0.075 C 
ATOM      3  C   UNL     1     -23.391 -44.446  25.727  0.00  0.00    +0.065 C 
ATOM      4  N   UNL     1     -23.301 -44.106  27.096  0.00  0.00    -0.311 N 
ATOM      5  C   UNL     1     -22.790 -42.819  27.308  0.00  0.00    +0.065 C 
ATOM      6  C   UNL     1     -22.424 -41.977  26.405  0.00  0.00    +0.075 C 
ATOM      7  H   UNL     1     -23.570 -44.711  27.825  0.00  0.00    +0.152 HD
ENDROOT
BRANCH   1   8
ATOM      8  C   UNL     1     -21.160 -42.342  24.362  0.00  0.00    -0.011 C 
ATOM      9  C   UNL     1     -20.659 -41.595  23.355  0.00  0.00    +0.056 C 
ATOM     10  C   UNL     1     -19.300 -41.379  23.263  0.00  0.00    +0.083 C 
ATOM     11  N   UNL     1     -18.680 -40.610  22.361  0.00  0.00    -0.244 NA
ATOM     12  C   UNL     1     -17.370 -40.357  22.283  0.00  0.00    +0.099 C 
ATOM     13  C   UNL     1     -16.492 -40.901  23.180  0.00  0.00    +0.021 C 
ATOM     14  C   UNL     1     -17.057 -41.710  24.148  0.00  0.00    +0.003 C 
ATOM     15  C   UNL     1     -18.412 -41.944  24.192  0.00  0.00    +0.018 C 
ATOM     16  C   UNL     1     -18.904 -42.715  25.201  0.00  0.00    +0.001 C 
ATOM     17  C   UNL     1     -20.248 -42.919  25.297  0.00  0.00    -0.004 C 
BRANCH   9  18
ATOM     18  C   UNL     1     -21.434 -41.349  22.136  0.00  0.00    +0.282 C 
ATOM     19  N   UNL     1     -22.645 -40.810  21.994  0.00  0.00    -0.206 NA
ATOM     20  C   UNL     1     -22.756 -39.901  21.094  0.00  0.00    +0.198 C 
ATOM     21  N   UNL     1     -21.479 -39.781  20.519  0.00  0.00    -0.221 NA
ATOM     22  C   UNL     1     -20.644 -40.633  21.103  0.00  0.00    +0.142 C 
BRANCH  18  23
ATOM     23  O   UNL     1     -21.462 -42.701  21.555  0.00  0.00    -0.410 OA
BRANCH  23  24
ATOM     24  C   UNL     1     -21.110 -43.003  20.288  0.00  0.00    +0.426 C 
ATOM     25  O   UNL     1     -21.980 -43.084  19.387  0.00  0.00    -0.224 OA
ATOM     26  N   UNL     1     -19.756 -43.245  19.883  0.00  0.00    -0.163 N 
ATOM     27  H   UNL     1     -19.022 -43.197  20.538  0.00  0.00    +0.186 HD
BRANCH  26  28
ATOM     28  O   UNL     1     -19.502 -43.538  18.590  0.00  0.00    -0.293 OA
ATOM     29  H   UNL     1     -19.416 -42.716  18.082  0.00  0.00    +0.241 HD
ENDBRANCH  26  28
ENDBRANCH  23  24
ENDBRANCH  18  23
ENDBRANCH   9  18
ENDBRANCH   1   8
BRANCH   1  30
ATOM     30  C   UNL     1     -23.542 -41.427  24.305  0.00  0.00    +0.117 C 
ATOM     31  C   UNL     1     -24.876 -41.162  24.803  0.00  0.00    +0.133 C 
ATOM     32  S   UNL     1     -26.187 -40.771  23.545  0.00  0.00    -0.119 S 
ATOM     33  C   UNL     1     -26.836 -39.262  24.379  0.00  0.00    +0.081 C 
ATOM     34  C   UNL     1     -25.927 -39.225  25.618  0.00  0.00    +0.106 C 
ATOM     35  N   UNL     1     -24.638 -39.749  25.139  0.00  0.00    -0.271 N 
ATOM     36  C   UNL     1     -23.321 -39.932  24.739  0.00  0.00    +0.229 C 
ATOM     37  O   UNL     1     -22.337 -39.162  24.737  0.00  0.00    -0.275 OA
ENDBRANCH   1  30
BRANCH   6  38
ATOM     38  C   UNL     1     -21.873 -40.689  26.924  0.00  0.00    +0.336 C 
ATOM     39  O   UNL     1     -20.777 -40.220  26.839  0.00  0.00    -0.245 OA
BRANCH  38  40
ATOM     40  O   UNL     1     -22.783 -39.857  27.648  0.00  0.00    -0.477 OA
ATOM     41  H   UNL     1     -23.652 -40.159  27.828  0.00  0.00    +0.295 HD
ENDBRANCH  38  40
ENDBRANCH   6  38
BRANCH   2  42
ATOM     42  C   UNL     1     -23.127 -44.222  23.424  0.00  0.00    +0.336 C 
ATOM     43  O   UNL     1     -24.052 -44.021  22.639  0.00  0.00    -0.245 OA
BRANCH  42  44
ATOM     44  O   UNL     1     -22.106 -45.030  22.968  0.00  0.00    -0.477 OA
ATOM     45  H   UNL     1     -22.263 -45.940  22.811  0.00  0.00    +0.295 HD
ENDBRANCH  42  44
ENDBRANCH   2  42
TORSDOF 10
ENDMDL
