REMARK  Name = =
REMARK  4 active torsions:
REMARK  status: ('A' for Active; 'I' for Inactive)
REMARK    1  A    between atoms: C_1  and  C_10
REMARK    2  A    between atoms: C_1  and  N_15
REMARK    3  A    between atoms: N_15  and  O_16
REMARK    4  A    between atoms: O_16  and  S_17
REMARK                            x       y       z     vdW  Elec       q    Type
REMARK                         _______ _______ _______ _____ _____    ______ ____
ROOT
ATOM      1  C   UNL     1     -13.225 -42.698  26.953  0.00  0.00    +0.142 C 
ATOM      2  C   UNL     1     -14.017 -41.438  27.023  0.00  0.00    +0.026 C 
ATOM      3  C   UNL     1     -15.129 -41.539  26.025  0.00  0.00    +0.006 C 
ATOM      4  C   UNL     1     -14.746 -41.024  24.653  0.00  0.00    +0.022 C 
ATOM      5  C   UNL     1     -15.632 -41.806  23.758  0.00  0.00    -0.044 C 
ATOM      6  C   UNL     1     -16.119 -41.474  22.570  0.00  0.00    -0.009 C 
ATOM      7  C   UNL     1     -15.909 -43.098  24.434  0.00  0.00    +0.022 C 
ATOM      8  C   UNL     1     -15.229 -43.028  25.773  0.00  0.00    +0.006 C 
ATOM      9  C   UNL     1     -13.800 -43.457  25.752  0.00  0.00    +0.026 C 
ENDROOT
BRANCH   1  10
ATOM     10  C   UNL     1     -13.411 -43.589  28.126  0.00  0.00    +0.174 A 
ATOM     11  N   UNL     1     -13.183 -44.904  28.082  0.00  0.00    -0.111 NA
ATOM     12  N   UNL     1     -13.434 -45.413  29.264  0.00  0.00    -0.023 NA
ATOM     13  N   UNL     1     -13.818 -44.419  30.048  0.00  0.00    -0.047 NA
ATOM     14  N   UNL     1     -13.809 -43.295  29.364  0.00  0.00    -0.241 N 
ATOM     15  H   UNL     1     -14.051 -42.403  29.703  0.00  0.00    +0.192 HD
ENDBRANCH   1  10
BRANCH   1  16
ATOM     16  N   UNL     1     -11.850 -42.377  26.708  0.00  0.00    -0.054 NA
BRANCH  16  17
ATOM     17  O   UNL     1     -11.018 -42.753  27.684  0.00  0.00    -0.147 OA
BRANCH  17  18
ATOM     18  S   UNL     1     -10.590 -41.526  28.721  0.00  0.00    -0.011 S 
ATOM     19  O   UNL     1      -9.117 -41.171  28.594  0.00  0.00    -0.074 OA
ATOM     20  O   UNL     1     -10.799 -42.030  30.142  0.00  0.00    -0.074 OA
ATOM     21  H   UNL     1     -11.342 -40.432  28.425  0.00  0.00    +0.216 HD
ENDBRANCH  17  18
ENDBRANCH  16  17
ENDBRANCH   1  16
TORSDOF 4
