REMARK  Name = =
REMARK  7 active torsions:
REMARK  status: ('A' for Active; 'I' for Inactive)
REMARK    1  A    between atoms: C_1  and  C_10
REMARK    2  A    between atoms: C_1  and  N_23
REMARK    3  A    between atoms: C_6  and  C_15
REMARK    4  A    between atoms: C_17  and  O_22
REMARK    5  A    between atoms: C_18  and  O_21
REMARK    6  A    between atoms: N_23  and  O_24
REMARK    7  A    between atoms: O_24  and  S_25
REMARK                            x       y       z     vdW  Elec       q    Type
REMARK                         _______ _______ _______ _____ _____    ______ ____
ROOT
ATOM      1  C   UNL     1     -11.375 -43.294  28.628  0.00  0.00    +0.142 C 
ATOM      2  C   UNL     1     -12.630 -42.525  28.883  0.00  0.00    +0.026 C 
ATOM      3  C   UNL     1     -13.723 -43.325  28.184  0.00  0.00    +0.006 C 
ATOM      4  C   UNL     1     -14.422 -42.568  27.068  0.00  0.00    +0.022 C 
ATOM      5  C   UNL     1     -14.456 -43.457  25.881  0.00  0.00    -0.044 C 
ATOM      6  C   UNL     1     -14.932 -43.323  24.695  0.00  0.00    -0.008 C 
ATOM      7  C   UNL     1     -13.814 -44.772  26.332  0.00  0.00    +0.022 C 
ATOM      8  C   UNL     1     -13.035 -44.459  27.499  0.00  0.00    +0.006 C 
ATOM      9  C   UNL     1     -11.642 -43.990  27.297  0.00  0.00    +0.026 C 
ENDROOT
BRANCH   1  10
ATOM     10  C   UNL     1     -10.161 -42.450  28.436  0.00  0.00    +0.174 A 
ATOM     11  N   UNL     1      -9.961 -41.148  28.328  0.00  0.00    -0.111 NA
ATOM     12  N   UNL     1      -8.636 -40.973  28.163  0.00  0.00    -0.023 NA
ATOM     13  N   UNL     1      -8.041 -42.141  28.169  0.00  0.00    -0.047 NA
ATOM     14  N   UNL     1      -8.937 -43.056  28.332  0.00  0.00    -0.241 N 
ATOM     15  H   UNL     1      -8.769 -44.025  28.374  0.00  0.00    +0.192 HD
ENDBRANCH   1  10
BRANCH   6  16
ATOM     16  C   UNL     1     -15.635 -42.306  23.972  0.00  0.00    +0.003 C 
ATOM     17  C   UNL     1     -17.053 -42.280  23.981  0.00  0.00    +0.040 C 
ATOM     18  C   UNL     1     -17.783 -41.402  23.247  0.00  0.00    +0.167 C 
ATOM     19  C   UNL     1     -17.125 -40.473  22.445  0.00  0.00    +0.167 C 
ATOM     20  C   UNL     1     -15.747 -40.448  22.399  0.00  0.00    +0.040 C 
ATOM     21  C   UNL     1     -15.016 -41.376  23.175  0.00  0.00    +0.003 C 
BRANCH  19  22
ATOM     22  O   UNL     1     -17.931 -39.603  21.717  0.00  0.00    -0.503 OA
ATOM     23  H   UNL     1     -18.864 -39.662  21.784  0.00  0.00    +0.292 HD
ENDBRANCH  19  22
BRANCH  18  24
ATOM     24  O   UNL     1     -19.181 -41.413  23.267  0.00  0.00    -0.503 OA
ATOM     25  H   UNL     1     -19.637 -42.033  23.802  0.00  0.00    +0.292 HD
ENDBRANCH  18  24
ENDBRANCH   6  16
BRANCH   1  26
ATOM     26  N   UNL     1     -11.042 -44.312  29.552  0.00  0.00    -0.054 NA
BRANCH  26  27
ATOM     27  O   UNL     1     -11.177 -43.977  30.857  0.00  0.00    -0.147 OA
BRANCH  27  28
ATOM     28  S   UNL     1     -12.279 -44.917  31.665  0.00  0.00    -0.011 S 
ATOM     29  O   UNL     1     -13.120 -44.055  32.548  0.00  0.00    -0.074 OA
ATOM     30  O   UNL     1     -13.155 -45.703  30.719  0.00  0.00    -0.074 OA
ATOM     31  H   UNL     1     -11.589 -45.815  32.418  0.00  0.00    +0.216 HD
ENDBRANCH  27  28
ENDBRANCH  26  27
ENDBRANCH   1  26
TORSDOF 7
