REMARK  Name = =
REMARK  0 active torsions:
REMARK  status: ('A' for Active; 'I' for Inactive)
REMARK                            x       y       z     vdW  Elec       q    Type
REMARK                         _______ _______ _______ _____ _____    ______ ____
ROOT
ATOM      1  C   UNL     1      48.156 159.092  30.353  0.00  0.00    +0.003 C 
ATOM      2  C   UNL     1      48.283 159.436  31.687  0.00  0.00    +0.040 C 
ATOM      3  C   UNL     1      49.133 160.458  32.078  0.00  0.00    +0.176 C 
ATOM      4  C   UNL     1      49.868 161.147  31.133  0.00  0.00    +0.176 C 
ATOM      5  C   UNL     1      49.717 160.777  29.814  0.00  0.00    +0.040 C 
ATOM      6  C   UNL     1      48.879 159.766  29.393  0.00  0.00    +0.003 C 
ATOM      7  O   UNL     1      50.652 162.129  31.766  0.00  0.00    -0.435 OA
ATOM      8  C   UNL     1      50.093 162.302  33.075  0.00  0.00    +0.429 C 
ATOM      9  O   UNL     1      49.474 161.026  33.299  0.00  0.00    -0.435 OA
ENDROOT
TORSDOF 0
