REMARK  Name = =
REMARK  0 active torsions:
REMARK  status: ('A' for Active; 'I' for Inactive)
REMARK                            x       y       z     vdW  Elec       q    Type
REMARK                         _______ _______ _______ _____ _____    ______ ____
ROOT
ATOM      1  O   UNL     1      52.084 156.374  27.811  0.00  0.00    -0.475 OA
ATOM      2  C   UNL     1      51.941 155.827  29.121  0.00  0.00    +0.214 C 
ATOM      3  C   UNL     1      51.179 154.542  28.978  0.00  0.00    +0.116 C 
ATOM      4  C   UNL     1      51.912 153.650  28.055  0.00  0.00    +0.180 C 
ATOM      5  O   UNL     1      51.937 152.398  28.174  0.00  0.00    -0.291 OA
ATOM      6  C   UNL     1      52.657 154.239  26.932  0.00  0.00    +0.069 C 
ATOM      7  C   UNL     1      52.717 155.615  26.849  0.00  0.00    +0.141 C 
ATOM      8  C   UNL     1      53.423 156.158  25.787  0.00  0.00    +0.037 C 
ATOM      9  C   UNL     1      54.046 155.377  24.842  0.00  0.00    +0.003 C 
ATOM     10  C   UNL     1      53.979 154.008  24.935  0.00  0.00    +0.000 C 
ATOM     11  C   UNL     1      53.279 153.443  25.990  0.00  0.00    +0.006 C 
ENDROOT
TORSDOF 0
