REMARK  Name = =
REMARK  0 active torsions:
REMARK  status: ('A' for Active; 'I' for Inactive)
REMARK                            x       y       z     vdW  Elec       q    Type
REMARK                         _______ _______ _______ _____ _____    ______ ____
ROOT
ATOM      1  N   UNL     1      49.306 161.732  30.777  0.00  0.00    -0.236 NA
ATOM      2  C   UNL     1      48.362 161.484  31.851  0.00  0.00    +0.117 C 
ATOM      3  C   UNL     1      48.618 160.104  32.361  0.00  0.00    +0.050 C 
ATOM      4  C   UNL     1      48.762 159.102  31.303  0.00  0.00    -0.020 C 
ATOM      5  C   UNL     1      48.533 159.241  29.939  0.00  0.00    -0.003 C 
ATOM      6  C   UNL     1      48.751 158.121  29.162  0.00  0.00    -0.000 C 
ATOM      7  C   UNL     1      49.174 156.917  29.689  0.00  0.00    -0.000 C 
ATOM      8  C   UNL     1      49.397 156.799  31.050  0.00  0.00    -0.000 C 
ATOM      9  C   UNL     1      49.186 157.904  31.845  0.00  0.00    -0.004 C 
ATOM     10  C   UNL     1      48.090 160.375  29.123  0.00  0.00    +0.017 C 
ATOM     11  C   UNL     1      48.612 161.705  29.532  0.00  0.00    +0.080 C 
ENDROOT
TORSDOF 0
