REMARK  Name = =
REMARK  2 active torsions:
REMARK  status: ('A' for Active; 'I' for Inactive)
REMARK    1  A    between atoms: C_2  and  N_12
REMARK    2  A    between atoms: N_12  and  N_13
REMARK                            x       y       z     vdW  Elec       q    Type
REMARK                         _______ _______ _______ _____ _____    ______ ____
ROOT
ATOM      1  O   UNL     1      52.636 156.387  26.778  0.00  0.00    -0.462 OA
ATOM      2  C   UNL     1      51.955 156.314  27.993  0.00  0.00    +0.245 C 
ATOM      3  C   UNL     1      51.317 154.936  28.204  0.00  0.00    +0.131 C 
ATOM      4  C   UNL     1      52.351 153.913  27.915  0.00  0.00    +0.181 C 
ATOM      5  O   UNL     1      52.578 152.947  28.674  0.00  0.00    -0.291 OA
ATOM      6  C   UNL     1      53.124 154.055  26.688  0.00  0.00    +0.069 C 
ATOM      7  C   UNL     1      53.246 155.314  26.145  0.00  0.00    +0.143 C 
ATOM      8  C   UNL     1      53.975 155.464  24.982  0.00  0.00    +0.037 C 
ATOM      9  C   UNL     1      54.571 154.376  24.377  0.00  0.00    +0.003 C 
ATOM     10  C   UNL     1      54.454 153.121  24.911  0.00  0.00    +0.000 C 
ATOM     11  C   UNL     1      53.727 152.964  26.073  0.00  0.00    +0.006 C 
ENDROOT
BRANCH   2  12
ATOM     12  N   UNL     1      52.812 156.538  29.138  0.00  0.00    -0.214 NA
ATOM     13  H   UNL     1      53.548 155.832  29.132  0.00  0.00    +0.145 HD
BRANCH  12  14
ATOM     14  N   UNL     1      53.405 157.785  29.154  0.00  0.00    -0.267 NA
ATOM     15  H   UNL     1      52.683 158.505  29.160  0.00  0.00    +0.137 HD
ATOM     16  H   UNL     1      53.988 157.895  28.324  0.00  0.00    +0.137 HD
ENDBRANCH  12  14
ENDBRANCH   2  12
TORSDOF 2
