REMARK  Name = =
REMARK  1 active torsions:
REMARK  status: ('A' for Active; 'I' for Inactive)
REMARK    1  A    between atoms: N_1  and  C_12
REMARK                            x       y       z     vdW  Elec       q    Type
REMARK                         _______ _______ _______ _____ _____    ______ ____
ROOT
ATOM      1  N   UNL     1      50.071 160.221  31.906  0.00  0.00    -0.273 NA
ATOM      2  C   UNL     1      51.485 160.293  32.218  0.00  0.00    +0.077 C 
ATOM      3  C   UNL     1      52.346 160.360  30.983  0.00  0.00    +0.043 C 
ATOM      4  C   UNL     1      52.211 159.274  30.035  0.00  0.00    -0.025 C 
ATOM      5  C   UNL     1      51.120 158.543  29.628  0.00  0.00    -0.025 C 
ATOM      6  C   UNL     1      51.235 157.534  28.687  0.00  0.00    -0.005 C 
ATOM      7  C   UNL     1      52.480 157.260  28.143  0.00  0.00    -0.000 C 
ATOM      8  C   UNL     1      53.602 157.972  28.524  0.00  0.00    -0.000 C 
ATOM      9  C   UNL     1      53.425 158.959  29.462  0.00  0.00    -0.005 C 
ATOM     10  C   UNL     1      49.699 158.697  30.111  0.00  0.00    +0.043 C 
ATOM     11  C   UNL     1      49.731 158.822  31.604  0.00  0.00    +0.077 C 
ENDROOT
BRANCH   1  12
ATOM     12  C   UNL     1      49.326 160.566  33.099  0.00  0.00    +0.058 C 
ATOM     13  C   UNL     1      50.074 161.533  34.002  0.00  0.00    +0.016 C 
ATOM     14  C   UNL     1      49.116 162.175  34.995  0.00  0.00    +0.001 C 
ATOM     15  C   UNL     1      48.179 163.141  34.308  0.00  0.00    +0.000 C 
ATOM     16  C   UNL     1      48.065 162.729  32.860  0.00  0.00    +0.001 C 
ATOM     17  C   UNL     1      47.990 161.196  32.756  0.00  0.00    +0.016 C 
ENDBRANCH   1  12
TORSDOF 1
