REMARK  Name = =
REMARK  7 active torsions:
REMARK  status: ('A' for Active; 'I' for Inactive)
REMARK    1  A    between atoms: N_1  and  C_3
REMARK    2  A    between atoms: N_1  and  N_13
REMARK    3  A    between atoms: N_1  and  O_14
REMARK    4  A    between atoms: O_14  and  C_15
REMARK    5  A    between atoms: C_15  and  C_17
REMARK    6  A    between atoms: C_18  and  O_23
REMARK    7  A    between atoms: O_23  and  C_24
REMARK                            x       y       z     vdW  Elec       q    Type
REMARK                         _______ _______ _______ _____ _____    ______ ____
ROOT
ATOM      1  N   UNL     1      52.105 157.432  28.957  0.00  0.00    -0.022 NA
ENDROOT
BRANCH   1   3
ATOM      2  O   UNL     1      53.063 156.413  27.107  0.00  0.00    -0.459 OA
ATOM      3  C   UNL     1      51.947 156.430  27.966  0.00  0.00    +0.283 C 
ATOM      4  C   UNL     1      51.665 155.118  28.616  0.00  0.00    +0.135 C 
ATOM      5  C   UNL     1      52.348 153.969  27.985  0.00  0.00    +0.181 C 
ATOM      6  O   UNL     1      52.353 152.872  28.580  0.00  0.00    -0.291 OA
ATOM      7  C   UNL     1      53.009 154.087  26.703  0.00  0.00    +0.069 C 
ATOM      8  C   UNL     1      53.364 155.348  26.276  0.00  0.00    +0.143 C 
ATOM      9  C   UNL     1      53.997 155.520  25.058  0.00  0.00    +0.037 C 
ATOM     10  C   UNL     1      54.277 154.441  24.264  0.00  0.00    +0.003 C 
ATOM     11  C   UNL     1      53.917 153.186  24.700  0.00  0.00    +0.000 C 
ATOM     12  C   UNL     1      53.292 153.001  25.901  0.00  0.00    +0.006 C 
ENDBRANCH   1   3
BRANCH   1  13
ATOM     13  N   UNL     1      53.186 157.435  29.721  0.00  0.00    -0.231 NA
ATOM     14  H   UNL     1      53.139 158.217  30.374  0.00  0.00    +0.140 HD
ATOM     15  H   UNL     1      54.016 157.531  29.136  0.00  0.00    +0.140 HD
ENDBRANCH   1  13
BRANCH   1  16
ATOM     16  O   UNL     1      51.050 158.177  29.255  0.00  0.00    -0.343 OA
BRANCH  16  17
ATOM     17  C   UNL     1      49.984 157.851  30.073  0.00  0.00    +0.363 C 
ATOM     18  O   UNL     1      49.608 156.650  30.054  0.00  0.00    -0.243 OA
BRANCH  17  19
ATOM     19  C   UNL     1      49.310 158.830  30.926  0.00  0.00    +0.112 C 
ATOM     20  C   UNL     1      49.674 160.155  30.825  0.00  0.00    +0.155 C 
ATOM     21  C   UNL     1      49.032 161.060  31.633  0.00  0.00    +0.038 C 
ATOM     22  C   UNL     1      48.047 160.661  32.525  0.00  0.00    +0.003 C 
ATOM     23  C   UNL     1      47.699 159.332  32.610  0.00  0.00    +0.000 C 
ATOM     24  C   UNL     1      48.337 158.393  31.800  0.00  0.00    +0.010 C 
BRANCH  20  25
ATOM     25  O   UNL     1      50.661 160.505  29.920  0.00  0.00    -0.416 OA
BRANCH  25  26
ATOM     26  C   UNL     1      50.279 161.044  28.703  0.00  0.00    +0.423 C 
ATOM     27  O   UNL     1      49.046 161.111  28.429  0.00  0.00    -0.237 OA
ENDBRANCH  25  26
ENDBRANCH  20  25
ENDBRANCH  17  19
ENDBRANCH  16  17
ENDBRANCH   1  16
TORSDOF 7
