REMARK  Name = =
REMARK  4 active torsions:
REMARK  status: ('A' for Active; 'I' for Inactive)
REMARK    1  A    between atoms: C_1  and  N_7
REMARK    2  A    between atoms: C_1  and  N_18
REMARK    3  A    between atoms: C_19  and  C_21
REMARK    4  A    between atoms: C_21  and  O_23
REMARK                            x       y       z     vdW  Elec       q    Type
REMARK                         _______ _______ _______ _____ _____    ______ ____
ROOT
ATOM      1  C   UNL     1      52.476 156.449  28.480  0.00  0.00    +0.105 C 
ATOM      2  C   UNL     1      53.849 156.815  29.023  0.00  0.00    +0.034 C 
ATOM      3  C   UNL     1      54.199 158.154  28.387  0.00  0.00    +0.003 C 
ATOM      4  C   UNL     1      54.520 157.826  26.922  0.00  0.00    +0.000 C 
ATOM      5  C   UNL     1      53.201 157.457  26.292  0.00  0.00    +0.003 C 
ATOM      6  C   UNL     1      52.624 156.260  27.012  0.00  0.00    +0.034 C 
ENDROOT
BRANCH   1   7
ATOM      7  N   UNL     1      51.548 157.462  28.860  0.00  0.00    -0.260 NA
ATOM      8  C   UNL     1      52.032 158.407  29.783  0.00  0.00    +0.078 C 
ATOM      9  C   UNL     1      51.358 159.770  29.540  0.00  0.00    +0.043 C 
ATOM     10  C   UNL     1      50.136 159.754  30.412  0.00  0.00    -0.025 C 
ATOM     11  C   UNL     1      49.329 158.682  30.687  0.00  0.00    -0.025 C 
ATOM     12  C   UNL     1      48.242 158.865  31.520  0.00  0.00    -0.005 C 
ATOM     13  C   UNL     1      47.952 160.091  32.074  0.00  0.00    -0.000 C 
ATOM     14  C   UNL     1      48.765 161.176  31.797  0.00  0.00    -0.000 C 
ATOM     15  C   UNL     1      49.848 160.976  30.964  0.00  0.00    -0.005 C 
ATOM     16  C   UNL     1      49.471 157.291  30.201  0.00  0.00    +0.043 C 
ATOM     17  C   UNL     1      50.181 157.224  28.863  0.00  0.00    +0.078 C 
ENDBRANCH   1   7
BRANCH   1  18
ATOM     18  N   UNL     1      52.011 155.203  29.050  0.00  0.00    -0.287 N 
ATOM     19  C   UNL     1      52.010 153.955  28.402  0.00  0.00    +0.323 C 
ATOM     20  O   UNL     1      52.442 153.883  27.242  0.00  0.00    -0.263 OA
ATOM     21  H   UNL     1      51.665 155.231  29.971  0.00  0.00    +0.151 HD
BRANCH  19  22
ATOM     22  C   UNL     1      51.504 152.771  29.101  0.00  0.00    +0.392 C 
ATOM     23  O   UNL     1      51.040 152.867  30.256  0.00  0.00    -0.240 OA
BRANCH  22  24
ATOM     24  O   UNL     1      51.533 151.533  28.484  0.00  0.00    -0.474 OA
ATOM     25  H   UNL     1      51.879 151.449  27.617  0.00  0.00    +0.296 HD
ENDBRANCH  22  24
ENDBRANCH  19  22
ENDBRANCH   1  18
TORSDOF 4
