REMARK  Name = =
REMARK  6 active torsions:
REMARK  status: ('A' for Active; 'I' for Inactive)
REMARK    1  A    between atoms: C_1  and  N_7
REMARK    2  A    between atoms: C_1  and  N_18
REMARK    3  A    between atoms: N_18  and  C_22
REMARK    4  A    between atoms: C_19  and  C_29
REMARK    5  A    between atoms: N_21  and  P_28
REMARK    6  A    between atoms: C_29  and  O_31
REMARK                            x       y       z     vdW  Elec       q    Type
REMARK                         _______ _______ _______ _____ _____    ______ ____
ROOT
ATOM      1  C   UNL     1      51.932 157.562  29.021  0.00  0.00    +0.109 C 
ATOM      2  C   UNL     1      52.279 156.120  28.986  0.00  0.00    +0.034 C 
ATOM      3  C   UNL     1      53.442 155.672  28.194  0.00  0.00    +0.003 C 
ATOM      4  C   UNL     1      53.123 155.962  26.712  0.00  0.00    +0.000 C 
ATOM      5  C   UNL     1      52.971 157.466  26.715  0.00  0.00    +0.003 C 
ATOM      6  C   UNL     1      51.736 157.886  27.501  0.00  0.00    +0.034 C 
ENDROOT
BRANCH   1   7
ATOM      7  N   UNL     1      52.854 158.477  29.486  0.00  0.00    -0.260 NA
ATOM      8  C   UNL     1      52.576 159.088  30.748  0.00  0.00    +0.078 C 
ATOM      9  C   UNL     1      52.394 160.590  30.698  0.00  0.00    +0.043 C 
ATOM     10  C   UNL     1      53.740 161.223  30.847  0.00  0.00    -0.025 C 
ATOM     11  C   UNL     1      54.926 160.643  30.448  0.00  0.00    -0.025 C 
ATOM     12  C   UNL     1      56.106 161.326  30.638  0.00  0.00    -0.005 C 
ATOM     13  C   UNL     1      56.114 162.597  31.227  0.00  0.00    -0.000 C 
ATOM     14  C   UNL     1      54.907 163.151  31.615  0.00  0.00    -0.000 C 
ATOM     15  C   UNL     1      53.723 162.471  31.427  0.00  0.00    -0.005 C 
ATOM     16  C   UNL     1      55.133 159.330  29.818  0.00  0.00    +0.043 C 
ATOM     17  C   UNL     1      53.961 158.985  28.854  0.00  0.00    +0.078 C 
ENDBRANCH   1   7
BRANCH   1  18
ATOM     18  N   UNL     1      50.594 157.692  29.655  0.00  0.00    -0.250 N 
ATOM     19  C   UNL     1      49.727 156.593  29.643  0.00  0.00    +0.327 C 
ATOM     20  O   UNL     1      48.524 156.869  30.118  0.00  0.00    -0.263 OA
BRANCH  18  22
ATOM     21  N   UNL     1      50.129 160.041  29.275  0.00  0.00    -0.232 NA
ATOM     22  C   UNL     1      50.131 158.918  30.225  0.00  0.00    +0.141 C 
ATOM     23  C   UNL     1      48.881 158.991  30.975  0.00  0.00    +0.037 C 
ATOM     24  C   UNL     1      48.683 160.331  31.690  0.00  0.00    +0.005 C 
ATOM     25  C   UNL     1      49.190 161.492  30.912  0.00  0.00    +0.018 C 
ATOM     26  C   UNL     1      50.395 161.252  30.065  0.00  0.00    +0.078 C 
BRANCH  21  28
ATOM     27  S   UNL     1      48.274 161.511  27.246  0.00  0.00    -0.036 S 
ATOM     28  P   UNL     1      48.577 160.261  28.423  0.00  0.00    +0.093 P 
ENDBRANCH  21  28
ENDBRANCH  18  22
BRANCH  19  29
ATOM     29  C   UNL     1      49.837 155.237  29.243  0.00  0.00    +0.393 C 
ATOM     30  O   UNL     1      50.834 154.567  28.903  0.00  0.00    -0.240 OA
BRANCH  29  31
ATOM     31  O   UNL     1      48.650 154.433  29.194  0.00  0.00    -0.474 OA
ATOM     32  H   UNL     1      47.822 154.806  29.424  0.00  0.00    +0.296 HD
ENDBRANCH  29  31
ENDBRANCH  19  29
ENDBRANCH   1  18
TORSDOF 6
