REMARK  Name = =
REMARK  1 active torsions:
REMARK  status: ('A' for Active; 'I' for Inactive)
REMARK    1  A    between atoms: C_1  and  C_17
REMARK                            x       y       z     vdW  Elec       q    Type
REMARK                         _______ _______ _______ _____ _____    ______ ____
ROOT
ATOM      1  C   UNL     1      51.990 155.015  28.049  0.00  0.00    +0.020 C 
ATOM      2  C   UNL     1      51.545 153.717  28.112  0.00  0.00    +0.017 C 
ATOM      3  C   UNL     1      50.898 153.162  29.223  0.00  0.00    +0.054 C 
ATOM      4  C   UNL     1      50.709 153.972  30.296  0.00  0.00    +0.043 C 
ATOM      5  C   UNL     1      51.126 155.269  30.303  0.00  0.00    +0.008 C 
ATOM      6  C   UNL     1      51.754 155.779  29.199  0.00  0.00    +0.002 C 
ATOM      7  S   UNL     1      49.884 153.293  31.738  0.00  0.00    -0.084 S 
ATOM      8  C   UNL     1      49.513 151.595  31.317  0.00  0.00    +0.043 C 
ATOM      9  C   UNL     1      49.843 151.057  30.118  0.00  0.00    +0.054 C 
ATOM     10  C   UNL     1      49.507 149.720  29.890  0.00  0.00    +0.015 C 
ATOM     11  C   UNL     1      48.872 148.988  30.841  0.00  0.00    +0.001 C 
ATOM     12  C   UNL     1      48.549 149.560  32.046  0.00  0.00    +0.001 C 
ATOM     13  C   UNL     1      48.876 150.871  32.276  0.00  0.00    +0.008 C 
ATOM     14  N   UNL     1      50.501 151.818  29.134  0.00  0.00    -0.312 N 
ATOM     15  H   UNL     1      50.706 151.357  28.289  0.00  0.00    +0.152 HD
ENDROOT
BRANCH   1  18
ATOM     16  C   UNL     1      53.386 157.455  25.728  0.00  0.00    +0.119 C 
ATOM     17  N   UNL     1      52.756 156.922  26.801  0.00  0.00    -0.241 NA
ATOM     18  C   UNL     1      52.662 155.606  26.905  0.00  0.00    +0.100 C 
ATOM     19  C   UNL     1      53.196 154.804  25.937  0.00  0.00    +0.118 C 
ATOM     20  N   UNL     1      53.835 155.339  24.847  0.00  0.00    -0.239 NA
ATOM     21  C   UNL     1      53.929 156.655  24.743  0.00  0.00    +0.120 C 
ENDBRANCH   1  18
TORSDOF 1
