REMARK  Name = =
REMARK  2 active torsions:
REMARK  status: ('A' for Active; 'I' for Inactive)
REMARK    1  A    between atoms: C_1  and  C_17
REMARK    2  A    between atoms: C_15  and  O_22
REMARK                            x       y       z     vdW  Elec       q    Type
REMARK                         _______ _______ _______ _____ _____    ______ ____
ROOT
ATOM      1  C   UNL     1      50.596 155.484  28.892  0.00  0.00    +0.021 C 
ATOM      2  C   UNL     1      51.111 155.397  27.634  0.00  0.00    +0.017 C 
ATOM      3  C   UNL     1      51.974 154.369  27.218  0.00  0.00    +0.054 C 
ATOM      4  C   UNL     1      52.288 153.423  28.164  0.00  0.00    +0.043 C 
ATOM      5  C   UNL     1      51.785 153.489  29.427  0.00  0.00    +0.008 C 
ATOM      6  C   UNL     1      50.944 154.495  29.822  0.00  0.00    +0.002 C 
ATOM      7  S   UNL     1      53.386 152.078  27.702  0.00  0.00    -0.084 S 
ATOM      8  C   UNL     1      53.816 152.344  26.005  0.00  0.00    +0.043 C 
ATOM      9  C   UNL     1      53.321 153.420  25.312  0.00  0.00    +0.054 C 
ATOM     10  C   UNL     1      53.712 153.558  23.970  0.00  0.00    +0.015 C 
ATOM     11  C   UNL     1      54.551 152.668  23.352  0.00  0.00    +0.001 C 
ATOM     12  C   UNL     1      55.038 151.592  24.064  0.00  0.00    +0.001 C 
ATOM     13  C   UNL     1      54.642 151.465  25.403  0.00  0.00    +0.008 C 
ATOM     14  N   UNL     1      52.453 154.370  25.892  0.00  0.00    -0.312 N 
ATOM     15  H   UNL     1      52.152 155.107  25.313  0.00  0.00    +0.152 HD
ENDROOT
BRANCH   1  18
ATOM     16  C   UNL     1      49.406 158.569  30.449  0.00  0.00    +0.245 C 
ATOM     17  N   UNL     1      50.199 157.570  30.034  0.00  0.00    -0.209 NA
ATOM     18  C   UNL     1      49.698 156.555  29.325  0.00  0.00    +0.104 C 
ATOM     19  C   UNL     1      48.379 156.498  29.001  0.00  0.00    +0.118 C 
ATOM     20  N   UNL     1      47.586 157.525  29.432  0.00  0.00    -0.236 NA
ATOM     21  C   UNL     1      48.060 158.547  30.139  0.00  0.00    +0.156 C 
BRANCH  16  23
ATOM     22  C   UNL     1      51.346 159.746  31.317  0.00  0.00    +0.254 C 
ATOM     23  O   UNL     1      49.943 159.619  31.186  0.00  0.00    -0.455 OA
ENDBRANCH  16  23
ENDBRANCH   1  18
TORSDOF 2
