REMARK  Name = =
REMARK  3 active torsions:
REMARK  status: ('A' for Active; 'I' for Inactive)
REMARK    1  A    between atoms: C_1  and  C_17
REMARK    2  A    between atoms: C_15  and  O_28
REMARK    3  A    between atoms: C_18  and  N_21
REMARK                            x       y       z     vdW  Elec       q    Type
REMARK                         _______ _______ _______ _____ _____    ______ ____
ROOT
ATOM      1  C   UNL     1      52.219 154.565  27.932  0.00  0.00    +0.022 C 
ATOM      2  C   UNL     1      51.147 155.007  28.675  0.00  0.00    +0.017 C 
ATOM      3  C   UNL     1      51.073 156.328  29.143  0.00  0.00    +0.054 C 
ATOM      4  C   UNL     1      52.101 157.186  28.844  0.00  0.00    +0.043 C 
ATOM      5  C   UNL     1      53.150 156.745  28.114  0.00  0.00    +0.008 C 
ATOM      6  C   UNL     1      53.239 155.438  27.641  0.00  0.00    +0.002 C 
ATOM      7  S   UNL     1      52.064 158.863  29.407  0.00  0.00    -0.084 S 
ATOM      8  C   UNL     1      50.525 159.055  30.333  0.00  0.00    +0.043 C 
ATOM      9  C   UNL     1      49.702 157.975  30.445  0.00  0.00    +0.054 C 
ATOM     10  C   UNL     1      48.505 158.111  31.161  0.00  0.00    +0.015 C 
ATOM     11  C   UNL     1      48.191 159.322  31.729  0.00  0.00    +0.001 C 
ATOM     12  C   UNL     1      49.030 160.411  31.612  0.00  0.00    +0.001 C 
ATOM     13  C   UNL     1      50.198 160.241  30.901  0.00  0.00    +0.008 C 
ATOM     14  N   UNL     1      49.933 156.691  29.900  0.00  0.00    -0.312 N 
ATOM     15  H   UNL     1      49.251 155.999  30.059  0.00  0.00    +0.152 HD
ENDROOT
BRANCH   1  18
ATOM     16  C   UNL     1      51.674 150.936  27.762  0.00  0.00    +0.245 C 
ATOM     17  N   UNL     1      51.596 152.221  28.121  0.00  0.00    -0.208 NA
ATOM     18  C   UNL     1      52.330 153.192  27.471  0.00  0.00    +0.116 C 
ATOM     19  C   UNL     1      53.159 152.873  26.438  0.00  0.00    +0.150 C 
ATOM     20  N   UNL     1      53.228 151.552  26.085  0.00  0.00    -0.223 NA
ATOM     21  C   UNL     1      52.513 150.611  26.720  0.00  0.00    +0.158 C 
BRANCH  19  22
ATOM     22  N   UNL     1      53.895 153.816  25.721  0.00  0.00    -0.292 N 
ATOM     23  C   UNL     1      55.070 153.302  25.093  0.00  0.00    +0.092 C 
ATOM     24  C   UNL     1      54.740 152.536  23.868  0.00  0.00    +0.022 C 
ATOM     25  C   UNL     1      53.947 153.362  22.913  0.00  0.00    +0.004 C 
ATOM     26  C   UNL     1      53.420 154.643  23.427  0.00  0.00    +0.022 C 
ATOM     27  C   UNL     1      53.172 154.727  24.901  0.00  0.00    +0.092 C 
ENDBRANCH  19  22
BRANCH  16  29
ATOM     28  C   UNL     1      50.237 150.232  29.626  0.00  0.00    +0.254 C 
ATOM     29  O   UNL     1      50.921 149.985  28.437  0.00  0.00    -0.455 OA
ENDBRANCH  16  29
ENDBRANCH   1  18
TORSDOF 3
