REMARK  Name = =
REMARK  5 active torsions:
REMARK  status: ('A' for Active; 'I' for Inactive)
REMARK    1  A    between atoms: C_1  and  C_17
REMARK    2  A    between atoms: C_13  and  N_29
REMARK    3  A    between atoms: C_15  and  O_28
REMARK    4  A    between atoms: N_29  and  O_32
REMARK    5  A    between atoms: C_30  and  C_33
REMARK                            x       y       z     vdW  Elec       q    Type
REMARK                         _______ _______ _______ _____ _____    ______ ____
ROOT
ATOM      1  C   UNL     1      52.561 156.016  27.252  0.00  0.00    +0.008 C 
ATOM      2  C   UNL     1      52.909 157.228  27.791  0.00  0.00    +0.013 C 
ATOM      3  C   UNL     1      52.145 157.843  28.788  0.00  0.00    +0.054 C 
ATOM      4  C   UNL     1      51.026 157.179  29.210  0.00  0.00    +0.043 C 
ATOM      5  C   UNL     1      50.646 155.982  28.705  0.00  0.00    +0.007 C 
ATOM      6  C   UNL     1      51.412 155.387  27.719  0.00  0.00    -0.001 C 
ATOM      7  S   UNL     1      49.998 157.898  30.479  0.00  0.00    -0.083 S 
ATOM      8  C   UNL     1      50.760 159.449  30.920  0.00  0.00    +0.059 C 
ATOM      9  C   UNL     1      51.914 159.836  30.288  0.00  0.00    +0.056 C 
ATOM     10  C   UNL     1      52.479 161.061  30.665  0.00  0.00    +0.015 C 
ATOM     11  C   UNL     1      51.896 161.840  31.629  0.00  0.00    +0.003 C 
ATOM     12  C   UNL     1      50.739 161.439  32.254  0.00  0.00    +0.018 C 
ATOM     13  C   UNL     1      50.176 160.222  31.882  0.00  0.00    +0.088 C 
ATOM     14  N   UNL     1      52.570 159.101  29.296  0.00  0.00    -0.312 N 
ATOM     15  H   UNL     1      53.394 159.486  28.918  0.00  0.00    +0.152 HD
ENDROOT
BRANCH   1  18
ATOM     16  C   UNL     1      54.749 155.661  24.405  0.00  0.00    +0.222 C 
ATOM     17  N   UNL     1      53.990 156.201  25.361  0.00  0.00    -0.230 NA
ATOM     18  C   UNL     1      53.354 155.373  26.213  0.00  0.00    +0.182 C 
ATOM     19  C   UNL     1      53.443 154.010  26.144  0.00  0.00    +0.131 C 
ATOM     20  N   UNL     1      54.216 153.494  25.169  0.00  0.00    -0.248 NA
ATOM     21  C   UNL     1      54.877 154.273  24.291  0.00  0.00    +0.210 C 
ATOM     22  N   UNL     1      52.697 153.232  27.068  0.00  0.00    -0.295 N 
ATOM     23  C   UNL     1      53.475 153.022  28.299  0.00  0.00    +0.092 C 
ATOM     24  C   UNL     1      52.409 152.779  29.373  0.00  0.00    +0.022 C 
ATOM     25  C   UNL     1      51.267 152.013  28.750  0.00  0.00    +0.004 C 
ATOM     26  C   UNL     1      51.691 151.137  27.599  0.00  0.00    +0.022 C 
ATOM     27  C   UNL     1      52.373 151.919  26.505  0.00  0.00    +0.092 C 
BRANCH  16  29
ATOM     28  C   UNL     1      55.236 157.868  23.570  0.00  0.00    +0.254 C 
ATOM     29  O   UNL     1      55.421 156.483  23.510  0.00  0.00    -0.458 OA
ENDBRANCH  16  29
ENDBRANCH   1  18
BRANCH  13  30
ATOM     30  N   UNL     1      48.975 159.786  32.518  0.00  0.00    -0.145 N 
ATOM     31  C   UNL     1      47.716 159.971  31.906  0.00  0.00    +0.275 C 
ATOM     32  O   UNL     1      46.666 159.583  32.478  0.00  0.00    -0.267 OA
BRANCH  30  33
ATOM     33  O   UNL     1      49.050 159.192  33.722  0.00  0.00    -0.287 OA
ATOM     34  H   UNL     1      49.978 159.142  34.001  0.00  0.00    +0.242 HD
ENDBRANCH  30  33
BRANCH  31  35
ATOM     35  C   UNL     1      47.571 160.610  30.604  0.00  0.00    +0.060 C 
ATOM     36  C   UNL     1      46.524 161.352  30.297  0.00  0.00    +0.005 C 
ENDBRANCH  31  35
ENDBRANCH  13  30
TORSDOF 5
