REMARK  Name = =
REMARK  3 active torsions:
REMARK  status: ('A' for Active; 'I' for Inactive)
REMARK    1  A    between atoms: C_1  and  C_29
REMARK    2  A    between atoms: C_3  and  C_8
REMARK    3  A    between atoms: C_30  and  O_33
REMARK                            x       y       z     vdW  Elec       q    Type
REMARK                         _______ _______ _______ _____ _____    ______ ____
ROOT
ATOM      1  C   UNL     1      -2.894  -4.330  30.288  0.00  0.00    +0.143 C 
ATOM      2  O   UNL     1      -1.567  -4.354  30.047  0.00  0.00    -0.350 OA
ATOM      3  C   UNL     1      -1.046  -3.399  29.196  0.00  0.00    +0.138 C 
ATOM      4  C   UNL     1      -2.174  -2.757  28.421  0.00  0.00    +0.034 C 
ATOM      5  C   UNL     1      -2.971  -1.977  29.474  0.00  0.00    +0.006 C 
ATOM      6  C   UNL     1      -3.561  -3.028  30.430  0.00  0.00    +0.032 C 
ATOM      7  C   UNL     1      -3.430  -2.494  31.860  0.00  0.00    +0.003 C 
ENDROOT
BRANCH   3   8
ATOM      8  C   UNL     1      -0.076  -3.951  28.240  0.00  0.00    +0.005 C 
ATOM      9  C   UNL     1       0.970  -3.152  27.803  0.00  0.00    -0.002 C 
ATOM     10  C   UNL     1       1.957  -3.588  26.908  0.00  0.00    +0.001 C 
ATOM     11  C   UNL     1       1.833  -4.871  26.475  0.00  0.00    +0.025 C 
ATOM     12  C   UNL     1       0.792  -5.676  26.905  0.00  0.00    +0.006 C 
ATOM     13  C   UNL     1      -0.172  -5.236  27.786  0.00  0.00    -0.001 C 
ATOM     14  S   UNL     1       2.999  -5.573  25.336  0.00  0.00    -0.106 S 
ATOM     15  C   UNL     1       4.285  -4.355  25.105  0.00  0.00    +0.096 C 
ATOM     16  C   UNL     1       4.168  -3.112  25.673  0.00  0.00    -0.012 C 
ATOM     17  C   UNL     1       5.217  -2.236  25.417  0.00  0.00    -0.003 C 
ATOM     18  C   UNL     1       6.321  -2.565  24.645  0.00  0.00    -0.001 C 
ATOM     19  C   UNL     1       6.390  -3.821  24.098  0.00  0.00    -0.003 C 
ATOM     20  C   UNL     1       5.360  -4.700  24.342  0.00  0.00    -0.011 C 
ATOM     21  C   UNL     1       3.054  -2.704  26.551  0.00  0.00    -0.024 C 
ATOM     22  C   UNL     1       3.064  -1.472  27.003  0.00  0.00    +0.031 C 
ENDBRANCH   3   8
BRANCH   1  29
ATOM     23  O   UNL     1      -1.283  -6.485  30.871  0.00  0.00    -0.476 OA
ATOM     24  C   UNL     1      -0.211  -7.179  31.504  0.00  0.00    +0.206 C 
ATOM     25  C   UNL     1      -0.626  -8.555  31.959  0.00  0.00    +0.052 C 
ATOM     26  C   UNL     1      -1.832  -8.528  32.829  0.00  0.00    +0.033 C 
ATOM     27  C   UNL     1      -2.732  -7.347  32.570  0.00  0.00    +0.012 C 
ATOM     28  C   UNL     1      -2.451  -6.385  31.636  0.00  0.00    +0.136 C 
ATOM     29  C   UNL     1      -3.261  -5.270  31.372  0.00  0.00    +0.072 C 
ATOM     30  C   UNL     1      -4.416  -5.177  32.131  0.00  0.00    +0.135 C 
ATOM     31  C   UNL     1      -4.701  -6.144  33.073  0.00  0.00    +0.036 C 
ATOM     32  C   UNL     1      -3.887  -7.227  33.310  0.00  0.00    +0.002 C 
BRANCH  30  33
ATOM     33  O   UNL     1      -5.298  -4.145  31.972  0.00  0.00    -0.506 OA
ATOM     34  H   UNL     1      -5.127  -3.476  31.339  0.00  0.00    +0.292 HD
ENDBRANCH  30  33
ENDBRANCH   1  29
TORSDOF 3
