MODEL 1
REMARK VINA RESULT:    -8.410      0.000      0.000
REMARK INTER + INTRA:         -12.729
REMARK INTER:                 -11.606
REMARK INTRA:                  -1.124
REMARK UNBOUND:                -1.124
REMARK  Name = =
REMARK  8 active torsions:
REMARK  status: ('A' for Active; 'I' for Inactive)
REMARK    1  A    between atoms: N_1  and  C_12
REMARK    2  A    between atoms: C_6  and  S_20
REMARK    3  A    between atoms: C_13  and  N_19
REMARK    4  A    between atoms: S_21  and  S_22
REMARK    5  A    between atoms: S_22  and  C_23
REMARK    6  A    between atoms: C_23  and  O_25
REMARK    7  A    between atoms: S_26  and  C_27
REMARK    8  A    between atoms: C_27  and  O_29
REMARK                            x       y       z     vdW  Elec       q    Type
REMARK                         _______ _______ _______ _____ _____    ______ ____
ROOT
ATOM      1  N   UNL     1      -5.558  -2.593  32.000  0.00  0.00    -0.197 N 
ATOM      2  C   UNL     1      -5.410  -3.438  33.127  0.00  0.00    +0.259 C 
ATOM      3  O   UNL     1      -6.016  -3.334  34.224  0.00  0.00    -0.269 OA
ATOM      4  C   UNL     1      -4.424  -4.499  32.861  0.00  0.00    +0.059 C 
ATOM      5  C   UNL     1      -3.958  -4.306  31.557  0.00  0.00    +0.064 C 
ATOM      6  C   UNL     1      -3.017  -5.160  31.016  0.00  0.00    +0.028 C 
ATOM      7  C   UNL     1      -2.586  -6.182  31.831  0.00  0.00    +0.006 C 
ATOM      8  C   UNL     1      -3.014  -6.402  33.102  0.00  0.00    +0.001 C 
ATOM      9  C   UNL     1      -3.951  -5.544  33.627  0.00  0.00    +0.005 C 
ATOM     10  C   UNL     1      -4.653  -3.138  31.026  0.00  0.00    +0.259 C 
ATOM     11  O   UNL     1      -4.504  -2.648  29.877  0.00  0.00    -0.269 OA
ENDROOT
BRANCH   1  12
ATOM     12  C   UNL     1      -6.406  -1.469  31.848  0.00  0.00    +0.112 C 
ATOM     13  C   UNL     1      -5.847  -0.229  31.623  0.00  0.00    +0.144 C 
ATOM     14  N   UNL     1      -6.618   0.878  31.474  0.00  0.00    -0.198 NA
ATOM     15  C   UNL     1      -7.959   0.820  31.539  0.00  0.00    +0.215 C 
ATOM     16  N   UNL     1      -8.509  -0.397  31.761  0.00  0.00    -0.211 NA
ATOM     17  C   UNL     1      -7.782  -1.519  31.914  0.00  0.00    +0.120 C 
ATOM     18  N   UNL     1      -8.758   1.985  31.380  0.00  0.00    -0.327 N 
ATOM     19  H   UNL     1      -8.330   2.857  31.220  0.00  0.00    +0.145 HD
ATOM     20  H   UNL     1      -9.739   1.920  31.430  0.00  0.00    +0.145 HD
BRANCH  13  21
ATOM     21  N   UNL     1      -4.437  -0.144  31.551  0.00  0.00    -0.342 N 
ATOM     22  H   UNL     1      -3.927  -0.827  31.058  0.00  0.00    +0.144 HD
ATOM     23  H   UNL     1      -3.966   0.598  31.994  0.00  0.00    +0.144 HD
ENDBRANCH  13  21
ENDBRANCH   1  12
BRANCH   6  24
ATOM     24  S   UNL     1      -2.425  -4.876  29.390  0.00  0.00    -0.108 S 
ATOM     25  S   UNL     1      -1.060  -6.048  29.365  0.00  0.00    -0.026 S 
ATOM     26  S   UNL     1      -1.079  -3.722  29.779  0.00  0.00    -0.017 S 
ATOM     27  H   UNL     1      -3.395  -4.728  28.449  0.00  0.00    +0.110 HD
BRANCH  26  28
ATOM     28  C   UNL     1      -1.101  -2.200  29.146  0.00  0.00    +0.208 C 
ATOM     29  S   UNL     1      -0.023  -1.591  28.081  0.00  0.00    -0.003 S 
BRANCH  28  30
ATOM     30  O   UNL     1      -2.120  -1.276  29.509  0.00  0.00    -0.495 OA
ATOM     31  H   UNL     1      -3.015  -1.550  29.530  0.00  0.00    +0.293 HD
ENDBRANCH  28  30
ENDBRANCH  26  28
BRANCH  25  32
ATOM     32  S   UNL     1      -0.993  -7.333  27.916  0.00  0.00    -0.002 S 
BRANCH  32  33
ATOM     33  C   UNL     1      -0.595  -8.993  28.412  0.00  0.00    +0.209 C 
ATOM     34  S   UNL     1       0.533  -9.802  27.565  0.00  0.00    -0.003 S 
BRANCH  33  35
ATOM     35  O   UNL     1      -1.205  -9.610  29.480  0.00  0.00    -0.495 OA
ATOM     36  H   UNL     1      -0.715 -10.193  30.026  0.00  0.00    +0.293 HD
ENDBRANCH  33  35
ENDBRANCH  32  33
ENDBRANCH  25  32
ENDBRANCH   6  24
TORSDOF 8
ENDMDL
