MODEL 1
REMARK VINA RESULT:    -8.811      0.000      0.000
REMARK INTER + INTRA:         -12.635
REMARK INTER:                 -11.386
REMARK INTRA:                  -1.248
REMARK UNBOUND:                -1.248
REMARK  Name = =
REMARK  5 active torsions:
REMARK  status: ('A' for Active; 'I' for Inactive)
REMARK    1  A    between atoms: C_1  and  C_18
REMARK    2  A    between atoms: C_1  and  C_25
REMARK    3  A    between atoms: C_15  and  N_19
REMARK    4  A    between atoms: C_25  and  C_31
REMARK    5  A    between atoms: C_38  and  C_41
REMARK                            x       y       z     vdW  Elec       q    Type
REMARK                         _______ _______ _______ _____ _____    ______ ____
ROOT
ATOM      1  C   UNL     1       1.875  -5.367  27.646  0.00  0.00    +0.018 C 
ATOM      2  C   UNL     1       2.432  -4.015  27.543  0.00  0.00    +0.005 C 
ATOM      3  C   UNL     1       3.851  -3.767  27.844  0.00  0.00    +0.018 C 
ATOM      4  C   UNL     1       4.676  -4.833  28.402  0.00  0.00    +0.004 C 
ATOM      5  C   UNL     1       4.354  -6.047  27.543  0.00  0.00    +0.000 C 
ATOM      6  C   UNL     1       2.969  -6.426  27.840  0.00  0.00    +0.002 C 
ATOM      7  C   UNL     1       4.557  -2.732  27.123  0.00  0.00    -0.045 C 
ATOM      8  C   UNL     1       5.739  -2.830  26.593  0.00  0.00    -0.009 C 
ATOM      9  C   UNL     1       3.771  -1.437  26.993  0.00  0.00    +0.022 C 
ATOM     10  C   UNL     1       2.605  -1.883  26.144  0.00  0.00    +0.004 C 
ATOM     11  C   UNL     1       1.750  -2.934  26.848  0.00  0.00    +0.001 C 
ENDROOT
BRANCH   1  18
ATOM     12  C   UNL     1       2.292  -5.244  25.149  0.00  0.00    +0.032 C 
ATOM     13  C   UNL     1       2.641  -6.584  24.759  0.00  0.00    +0.060 C 
ATOM     14  N   UNL     1       1.611  -7.077  25.744  0.00  0.00    -0.261 NA
ATOM     15  C   UNL     1       1.659  -8.479  25.452  0.00  0.00    +0.136 C 
ATOM     16  C   UNL     1       1.869  -8.587  24.107  0.00  0.00    +0.038 C 
ATOM     17  C   UNL     1       1.960  -7.214  23.525  0.00  0.00    +0.019 C 
ATOM     18  C   UNL     1       1.335  -5.733  26.254  0.00  0.00    +0.060 C 
BRANCH  15  19
ATOM     19  N   UNL     1       1.591  -9.630  26.283  0.00  0.00    -0.268 N 
ATOM     20  C   UNL     1       2.741 -10.371  26.780  0.00  0.00    +0.227 C 
ATOM     21  O   UNL     1       3.878  -9.854  26.854  0.00  0.00    -0.275 OA
ATOM     22  C   UNL     1       2.377 -11.742  27.160  0.00  0.00    +0.087 C 
ATOM     23  C   UNL     1       0.944 -11.838  26.742  0.00  0.00    +0.031 C 
ATOM     24  C   UNL     1       0.448 -10.365  26.741  0.00  0.00    +0.095 C 
ENDBRANCH  15  19
ENDBRANCH   1  18
BRANCH   1  25
ATOM     25  C   UNL     1       0.778  -5.649  28.629  0.00  0.00    +0.027 C 
ATOM     26  C   UNL     1       0.606  -4.489  29.636  0.00  0.00    +0.012 C 
ATOM     27  C   UNL     1      -0.535  -3.635  29.263  0.00  0.00    +0.065 C 
ATOM     28  C   UNL     1      -1.042  -4.150  27.997  0.00  0.00    +0.151 C 
ATOM     29  O   UNL     1      -1.676  -3.571  27.151  0.00  0.00    -0.296 OA
ATOM     30  C   UNL     1      -0.588  -5.579  27.995  0.00  0.00    +0.069 C 
BRANCH  25  31
ATOM     31  C   UNL     1       0.850  -6.810  29.558  0.00  0.00    -0.019 C 
ATOM     32  C   UNL     1      -0.052  -7.963  29.157  0.00  0.00    +0.036 C 
ATOM     33  C   UNL     1      -1.164  -8.328  30.040  0.00  0.00    +0.173 C 
ATOM     34  O   UNL     1      -1.083  -7.896  31.357  0.00  0.00    -0.467 OA
ATOM     35  C   UNL     1       0.061  -7.252  31.835  0.00  0.00    +0.210 C 
ATOM     36  C   UNL     1       1.026  -6.695  30.996  0.00  0.00    +0.018 C 
ATOM     37  C   UNL     1       2.095  -6.097  31.637  0.00  0.00    +0.009 C 
ATOM     38  C   UNL     1       2.259  -6.021  33.014  0.00  0.00    +0.068 C 
ATOM     39  C   UNL     1       1.271  -6.589  33.780  0.00  0.00    +0.010 C 
ATOM     40  C   UNL     1       0.179  -7.201  33.206  0.00  0.00    +0.022 C 
BRANCH  38  41
ATOM     41  C   UNL     1       3.410  -5.374  33.595  0.00  0.00    +0.100 C 
ATOM     42  N   UNL     1       4.344  -4.843  34.047  0.00  0.00    -0.191 NA
ENDBRANCH  38  41
ENDBRANCH  25  31
ENDBRANCH   1  25
TORSDOF 5
ENDMDL
