REMARK  Name = =
REMARK  8 active torsions:
REMARK  status: ('A' for Active; 'I' for Inactive)
REMARK    1  A    between atoms: N_1  and  C_12
REMARK    2  A    between atoms: C_6  and  S_20
REMARK    3  A    between atoms: C_13  and  N_19
REMARK    4  A    between atoms: S_21  and  S_22
REMARK    5  A    between atoms: S_22  and  C_23
REMARK    6  A    between atoms: C_23  and  O_25
REMARK    7  A    between atoms: S_26  and  C_27
REMARK    8  A    between atoms: C_27  and  O_29
REMARK                            x       y       z     vdW  Elec       q    Type
REMARK                         _______ _______ _______ _____ _____    ______ ____
ROOT
ATOM      1  N   UNL     1      -5.048  -3.904  31.948  0.00  0.00    -0.197 N 
ATOM      2  C   UNL     1      -4.805  -4.699  33.094  0.00  0.00    +0.259 C 
ATOM      3  O   UNL     1      -5.399  -4.618  34.200  0.00  0.00    -0.269 OA
ATOM      4  C   UNL     1      -3.732  -5.675  32.838  0.00  0.00    +0.059 C 
ATOM      5  C   UNL     1      -3.308  -5.478  31.520  0.00  0.00    +0.064 C 
ATOM      6  C   UNL     1      -2.303  -6.260  30.984  0.00  0.00    +0.028 C 
ATOM      7  C   UNL     1      -1.768  -7.215  31.818  0.00  0.00    +0.006 C 
ATOM      8  C   UNL     1      -2.153  -7.436  33.103  0.00  0.00    +0.001 C 
ATOM      9  C   UNL     1      -3.154  -6.650  33.623  0.00  0.00    +0.005 C 
ATOM     10  C   UNL     1      -4.114  -4.393  30.971  0.00  0.00    +0.259 C 
ATOM     11  O   UNL     1      -4.030  -3.925  29.807  0.00  0.00    -0.269 OA
ENDROOT
BRANCH   1  12
ATOM     12  C   UNL     1      -5.996  -2.865  31.782  0.00  0.00    +0.112 C 
ATOM     13  C   UNL     1      -5.678  -1.589  32.198  0.00  0.00    +0.144 C 
ATOM     14  N   UNL     1      -6.555  -0.562  32.063  0.00  0.00    -0.198 NA
ATOM     15  C   UNL     1      -7.772  -0.737  31.520  0.00  0.00    +0.215 C 
ATOM     16  N   UNL     1      -8.085  -1.989  31.112  0.00  0.00    -0.211 NA
ATOM     17  C   UNL     1      -7.246  -3.035  31.227  0.00  0.00    +0.120 C 
ATOM     18  N   UNL     1      -8.682   0.346  31.381  0.00  0.00    -0.327 N 
ATOM     19  H   UNL     1      -8.426   1.246  31.687  0.00  0.00    +0.145 HD
ATOM     20  H   UNL     1      -9.568   0.196  30.979  0.00  0.00    +0.145 HD
BRANCH  13  21
ATOM     21  N   UNL     1      -4.403  -1.382  32.773  0.00  0.00    -0.342 N 
ATOM     22  H   UNL     1      -3.776  -2.136  32.865  0.00  0.00    +0.144 HD
ATOM     23  H   UNL     1      -4.142  -0.484  33.081  0.00  0.00    +0.144 HD
ENDBRANCH  13  21
ENDBRANCH   1  12
BRANCH   6  24
ATOM     24  S   UNL     1      -1.767  -5.971  29.340  0.00  0.00    -0.108 S 
ATOM     25  S   UNL     1      -0.529  -7.269  29.202  0.00  0.00    -0.026 S 
ATOM     26  S   UNL     1      -0.296  -4.970  29.696  0.00  0.00    -0.017 S 
ATOM     27  H   UNL     1      -2.763  -5.692  28.457  0.00  0.00    +0.110 HD
BRANCH  26  28
ATOM     28  C   UNL     1      -0.198  -3.430  29.118  0.00  0.00    +0.208 C 
ATOM     29  S   UNL     1      -1.309  -2.689  28.177  0.00  0.00    -0.003 S 
BRANCH  28  30
ATOM     30  O   UNL     1       0.922  -2.608  29.423  0.00  0.00    -0.495 OA
ATOM     31  H   UNL     1       1.616  -2.941  29.957  0.00  0.00    +0.293 HD
ENDBRANCH  28  30
ENDBRANCH  26  28
BRANCH  25  32
ATOM     32  S   UNL     1      -0.662  -8.496  27.708  0.00  0.00    -0.002 S 
BRANCH  32  33
ATOM     33  C   UNL     1       0.693  -8.419  26.560  0.00  0.00    +0.209 C 
ATOM     34  S   UNL     1       1.997  -7.535  26.964  0.00  0.00    -0.003 S 
BRANCH  33  35
ATOM     35  O   UNL     1       0.675  -9.077  25.352  0.00  0.00    -0.495 OA
ATOM     36  H   UNL     1       1.409  -9.013  24.773  0.00  0.00    +0.293 HD
ENDBRANCH  33  35
ENDBRANCH  32  33
ENDBRANCH  25  32
ENDBRANCH   6  24
TORSDOF 8
