REMARK  Name = =
REMARK  1 active torsions:
REMARK  status: ('A' for Active; 'I' for Inactive)
REMARK    1  A    between atoms: C_2  and  C_4
REMARK                            x       y       z     vdW  Elec       q    Type
REMARK                         _______ _______ _______ _____ _____    ______ ____
ROOT
ATOM      1  N   UNL     1      50.541 154.997  28.226  0.00  0.00    -0.322 N 
ATOM      2  C   UNL     1      51.507 155.655  29.074  0.00  0.00    +0.296 C 
ATOM      3  O   UNL     1      51.577 155.360  30.293  0.00  0.00    -0.265 OA
ATOM      4  H   UNL     1      49.937 154.318  28.603  0.00  0.00    +0.145 HD
ATOM      5  H   UNL     1      50.487 155.228  27.270  0.00  0.00    +0.145 HD
ENDROOT
BRANCH   2   6
ATOM      6  C   UNL     1      52.401 156.651  28.545  0.00  0.00    +0.296 C 
ATOM      7  O   UNL     1      52.859 156.509  27.398  0.00  0.00    -0.265 OA
ATOM      8  N   UNL     1      52.752 157.773  29.317  0.00  0.00    -0.322 N 
ATOM      9  H   UNL     1      52.386 157.880  30.225  0.00  0.00    +0.145 HD
ATOM     10  H   UNL     1      53.364 158.451  28.950  0.00  0.00    +0.145 HD
ENDBRANCH   2   6
TORSDOF 1
