REMARK  Name = =
REMARK  4 active torsions:
REMARK  status: ('A' for Active; 'I' for Inactive)
REMARK    1  A    between atoms: C_1  and  C_5
REMARK    2  A    between atoms: N_3  and  C_7
REMARK    3  A    between atoms: C_8  and  C_9
REMARK    4  A    between atoms: C_9  and  O_11
REMARK                            x       y       z     vdW  Elec       q    Type
REMARK                         _______ _______ _______ _____ _____    ______ ____
ROOT
ATOM      1  C   UNL     1      52.427 156.533  28.328  0.00  0.00    +0.303 C 
ATOM      2  O   UNL     1      53.408 157.216  27.941  0.00  0.00    -0.265 OA
ATOM      3  N   UNL     1      51.560 157.108  29.319  0.00  0.00    -0.275 N 
ATOM      4  H   UNL     1      50.789 156.579  29.627  0.00  0.00    +0.155 HD
ENDROOT
BRANCH   1   6
ATOM      5  N   UNL     1      53.253 154.505  27.180  0.00  0.00    -0.322 N 
ATOM      6  C   UNL     1      52.189 155.207  27.783  0.00  0.00    +0.297 C 
ATOM      7  O   UNL     1      51.062 154.677  27.840  0.00  0.00    -0.265 OA
ATOM      8  H   UNL     1      53.102 153.606  26.808  0.00  0.00    +0.145 HD
ATOM      9  H   UNL     1      54.147 154.914  27.131  0.00  0.00    +0.145 HD
ENDBRANCH   1   6
BRANCH   3  10
ATOM     10  C   UNL     1      51.753 158.384  29.872  0.00  0.00    +0.071 C 
ATOM     11  C   UNL     1      50.748 159.207  30.054  0.00  0.00    +0.098 C 
BRANCH  11  12
ATOM     12  C   UNL     1      51.027 160.519  30.633  0.00  0.00    +0.340 C 
ATOM     13  O   UNL     1      50.121 161.377  30.749  0.00  0.00    -0.245 OA
BRANCH  12  14
ATOM     14  O   UNL     1      52.289 160.877  31.080  0.00  0.00    -0.477 OA
ATOM     15  H   UNL     1      52.999 160.269  31.014  0.00  0.00    +0.295 HD
ENDBRANCH  12  14
ENDBRANCH  11  12
ENDBRANCH   3  10
TORSDOF 4
