REMARK  Name = =
REMARK  7 active torsions:
REMARK  status: ('A' for Active; 'I' for Inactive)
REMARK    1  A    between atoms: N_1  and  N_12
REMARK    2  A    between atoms: C_2  and  C_4
REMARK    3  A    between atoms: N_6  and  C_7
REMARK    4  A    between atoms: C_8  and  C_9
REMARK    5  A    between atoms: C_9  and  O_11
REMARK    6  A    between atoms: N_12  and  C_17
REMARK    7  A    between atoms: C_13  and  C_20
REMARK                            x       y       z     vdW  Elec       q    Type
REMARK                         _______ _______ _______ _____ _____    ______ ____
ROOT
ATOM      1  N   UNL     1      53.577 154.977  27.384  0.00  0.00    -0.228 N 
ATOM      2  C   UNL     1      52.902 155.333  28.582  0.00  0.00    +0.315 C 
ATOM      3  O   UNL     1      52.812 154.518  29.556  0.00  0.00    -0.264 OA
ATOM      4  H   UNL     1      53.632 155.620  26.640  0.00  0.00    +0.173 HD
ENDROOT
BRANCH   2   5
ATOM      5  C   UNL     1      52.281 156.656  28.745  0.00  0.00    +0.305 C 
ATOM      6  O   UNL     1      52.502 157.584  27.928  0.00  0.00    -0.265 OA
ATOM      7  N   UNL     1      51.419 156.900  29.839  0.00  0.00    -0.275 N 
ATOM      8  H   UNL     1      51.257 156.155  30.462  0.00  0.00    +0.155 HD
BRANCH   7   9
ATOM      9  C   UNL     1      50.779 158.111  30.108  0.00  0.00    +0.071 C 
ATOM     10  C   UNL     1      49.480 158.322  30.074  0.00  0.00    +0.098 C 
BRANCH  10  11
ATOM     11  C   UNL     1      48.956 159.649  30.386  0.00  0.00    +0.340 C 
ATOM     12  O   UNL     1      49.692 160.606  30.712  0.00  0.00    -0.245 OA
BRANCH  11  13
ATOM     13  O   UNL     1      47.598 159.889  30.323  0.00  0.00    -0.477 OA
ATOM     14  H   UNL     1      47.011 159.199  30.083  0.00  0.00    +0.295 HD
ENDBRANCH  11  13
ENDBRANCH  10  11
ENDBRANCH   7   9
ENDBRANCH   2   5
BRANCH   1  15
ATOM     15  N   UNL     1      54.162 153.716  27.262  0.00  0.00    -0.247 N 
ATOM     16  H   UNL     1      55.115 153.599  27.478  0.00  0.00    +0.172 HD
BRANCH  15  21
ATOM     17  C   UNL     1      53.308 150.466  25.708  0.00  0.00    +0.139 C 
ATOM     18  N   UNL     1      51.977 150.432  26.013  0.00  0.00    -0.219 NA
ATOM     19  C   UNL     1      51.362 151.413  26.689  0.00  0.00    +0.200 C 
ATOM     20  N   UNL     1      52.068 152.479  27.089  0.00  0.00    -0.208 NA
ATOM     21  C   UNL     1      53.396 152.595  26.829  0.00  0.00    +0.148 C 
ATOM     22  C   UNL     1      53.994 151.580  26.139  0.00  0.00    +0.059 C 
BRANCH  17  24
ATOM     23  N   UNL     1      53.273 148.258  24.554  0.00  0.00    -0.324 N 
ATOM     24  C   UNL     1      53.966 149.388  24.990  0.00  0.00    +0.261 C 
ATOM     25  O   UNL     1      55.220 149.536  24.783  0.00  0.00    -0.269 OA
ATOM     26  H   UNL     1      52.308 148.174  24.729  0.00  0.00    +0.145 HD
ATOM     27  H   UNL     1      53.749 147.544  24.071  0.00  0.00    +0.145 HD
ENDBRANCH  17  24
ENDBRANCH  15  21
ENDBRANCH   1  15
TORSDOF 7
