REMARK  Name = =
REMARK  8 active torsions:
REMARK  status: ('A' for Active; 'I' for Inactive)
REMARK    1  A    between atoms: N_1  and  C_6
REMARK    2  A    between atoms: N_1  and  N_16
REMARK    3  A    between atoms: C_2  and  C_9
REMARK    4  A    between atoms: N_8  and  C_15
REMARK    5  A    between atoms: C_17  and  C_19
REMARK    6  A    between atoms: N_21  and  C_22
REMARK    7  A    between atoms: C_23  and  C_24
REMARK    8  A    between atoms: C_24  and  O_26
REMARK                            x       y       z     vdW  Elec       q    Type
REMARK                         _______ _______ _______ _____ _____    ______ ____
ROOT
ATOM      1  N   UNL     1      51.475 156.061  27.351  0.00  0.00    -0.247 N 
ATOM      2  H   UNL     1      51.559 156.496  26.472  0.00  0.00    +0.172 HD
ENDROOT
BRANCH   1   7
ATOM      3  C   UNL     1      51.641 158.667  29.915  0.00  0.00    +0.139 C 
ATOM      4  N   UNL     1      50.753 158.116  30.753  0.00  0.00    -0.219 NA
ATOM      5  C   UNL     1      50.096 156.975  30.549  0.00  0.00    +0.200 C 
ATOM      6  N   UNL     1      50.337 156.306  29.403  0.00  0.00    -0.208 NA
ATOM      7  C   UNL     1      51.231 156.825  28.521  0.00  0.00    +0.148 C 
ATOM      8  C   UNL     1      51.893 157.992  28.744  0.00  0.00    +0.059 C 
BRANCH   3  10
ATOM      9  N   UNL     1      52.052 160.482  31.542  0.00  0.00    -0.301 N 
ATOM     10  C   UNL     1      52.327 159.918  30.269  0.00  0.00    +0.264 C 
ATOM     11  O   UNL     1      53.129 160.465  29.480  0.00  0.00    -0.268 OA
ATOM     12  H   UNL     1      51.419 160.027  32.143  0.00  0.00    +0.150 HD
BRANCH   9  17
ATOM     13  C   UNL     1      52.583 162.839  30.988  0.00  0.00    +0.020 C 
ATOM     14  C   UNL     1      53.978 163.422  30.941  0.00  0.00    +0.002 C 
ATOM     15  C   UNL     1      54.659 162.942  32.202  0.00  0.00    +0.002 C 
ATOM     16  C   UNL     1      54.105 161.541  32.352  0.00  0.00    +0.020 C 
ATOM     17  C   UNL     1      52.674 161.697  31.972  0.00  0.00    +0.072 C 
ENDBRANCH   9  17
ENDBRANCH   3  10
ENDBRANCH   1   7
BRANCH   1  18
ATOM     18  N   UNL     1      51.593 154.679  27.478  0.00  0.00    -0.228 N 
ATOM     19  C   UNL     1      52.256 153.856  26.543  0.00  0.00    +0.315 C 
ATOM     20  O   UNL     1      52.774 154.388  25.513  0.00  0.00    -0.264 OA
ATOM     21  H   UNL     1      51.190 154.251  28.267  0.00  0.00    +0.173 HD
BRANCH  19  22
ATOM     22  C   UNL     1      52.360 152.417  26.730  0.00  0.00    +0.305 C 
ATOM     23  O   UNL     1      51.895 151.905  27.801  0.00  0.00    -0.265 OA
ATOM     24  N   UNL     1      52.955 151.574  25.774  0.00  0.00    -0.275 N 
ATOM     25  H   UNL     1      53.303 151.993  24.954  0.00  0.00    +0.155 HD
BRANCH  24  26
ATOM     26  C   UNL     1      53.092 150.174  25.899  0.00  0.00    +0.071 C 
ATOM     27  C   UNL     1      52.518 149.388  25.002  0.00  0.00    +0.098 C 
BRANCH  27  28
ATOM     28  C   UNL     1      52.654 147.939  25.122  0.00  0.00    +0.340 C 
ATOM     29  O   UNL     1      52.071 147.161  24.288  0.00  0.00    -0.245 OA
BRANCH  28  30
ATOM     30  O   UNL     1      53.412 147.398  26.133  0.00  0.00    -0.477 OA
ATOM     31  H   UNL     1      53.842 147.959  26.748  0.00  0.00    +0.295 HD
ENDBRANCH  28  30
ENDBRANCH  27  28
ENDBRANCH  24  26
ENDBRANCH  19  22
ENDBRANCH   1  18
TORSDOF 8
