REMARK  Name = =
REMARK  0 active torsions:
REMARK  status: ('A' for Active; 'I' for Inactive)
REMARK                            x       y       z     vdW  Elec       q    Type
REMARK                         _______ _______ _______ _____ _____    ______ ____
ROOT
ATOM      1  C   UNL     1      -4.089  -4.244  30.907  0.00  0.00    +0.000 C 
ATOM      2  C   UNL     1      -3.698  -5.564  31.103  0.00  0.00    +0.000 C 
ATOM      3  C   UNL     1      -2.430  -5.984  30.755  0.00  0.00    +0.000 C 
ATOM      4  C   UNL     1      -1.527  -5.101  30.206  0.00  0.00    +0.000 C 
ATOM      5  C   UNL     1      -1.903  -3.789  30.006  0.00  0.00    +0.000 C 
ATOM      6  C   UNL     1      -3.179  -3.364  30.356  0.00  0.00    +0.000 C 
ENDROOT
TORSDOF 0
