REMARK  Name = =
REMARK  1 active torsions:
REMARK  status: ('A' for Active; 'I' for Inactive)
REMARK    1  A    between atoms: S_1  and  O_4
REMARK                            x       y       z     vdW  Elec       q    Type
REMARK                         _______ _______ _______ _____ _____    ______ ____
ROOT
ATOM      1  S   UNL     1      -4.328  -3.410  31.027  0.00  0.00    -0.032 S 
ATOM      2  O   UNL     1      -5.095  -2.128  31.100  0.00  0.00    -0.076 OA
ATOM      3  O   UNL     1      -4.359  -3.947  29.633  0.00  0.00    -0.076 OA
ATOM      4  H   UNL     1      -4.868  -4.323  31.878  0.00  0.00    +0.214 HD
ENDROOT
BRANCH   1   5
ATOM      5  O   UNL     1      -2.735  -3.061  31.404  0.00  0.00    -0.274 OA
ATOM      6  H   UNL     1      -2.389  -2.409  30.775  0.00  0.00    +0.242 HD
ENDBRANCH   1   5
TORSDOF 1
