REMARK  Name = =
REMARK  1 active torsions:
REMARK  status: ('A' for Active; 'I' for Inactive)
REMARK    1  A    between atoms: S_1  and  C_10
REMARK                            x       y       z     vdW  Elec       q    Type
REMARK                         _______ _______ _______ _____ _____    ______ ____
ROOT
ATOM      1  S   UNL     1      -0.021  -5.395  30.075  0.00  0.00    -0.208 S 
ATOM      2  C   UNL     1       0.417  -5.875  28.345  0.00  0.00    +0.041 C 
ATOM      3  C   UNL     1       1.902  -6.069  28.340  0.00  0.00    +0.010 C 
ATOM      4  C   UNL     1       2.638  -4.758  28.429  0.00  0.00    +0.002 C 
ATOM      5  C   UNL     1       1.743  -3.675  28.973  0.00  0.00    +0.010 C 
ATOM      6  C   UNL     1       1.208  -4.147  30.305  0.00  0.00    +0.041 C 
ATOM      7  H   UNL     1       0.021  -6.358  31.034  0.00  0.00    +0.088 HD
ENDROOT
BRANCH   1  11
ATOM      8  C   UNL     1      -4.378  -4.155  30.544  0.00  0.00    +0.000 C 
ATOM      9  C   UNL     1      -3.962  -5.362  31.065  0.00  0.00    +0.000 C 
ATOM     10  C   UNL     1      -2.642  -5.744  30.926  0.00  0.00    +0.005 C 
ATOM     11  C   UNL     1      -1.719  -4.967  30.286  0.00  0.00    +0.006 C 
ATOM     12  C   UNL     1      -2.150  -3.778  29.778  0.00  0.00    +0.005 C 
ATOM     13  C   UNL     1      -3.456  -3.372  29.900  0.00  0.00    +0.000 C 
ENDBRANCH   1  11
TORSDOF 1
