REMARK  Name = =
REMARK  2 active torsions:
REMARK  status: ('A' for Active; 'I' for Inactive)
REMARK    1  A    between atoms: C_1  and  S_8
REMARK    2  A    between atoms: S_8  and  O_11
REMARK                            x       y       z     vdW  Elec       q    Type
REMARK                         _______ _______ _______ _____ _____    ______ ____
ROOT
ATOM      1  C   UNL     1      -3.718  -1.900  29.934  0.00  0.00    +0.272 C 
ATOM      2  O   UNL     1      -3.535  -0.749  30.688  0.00  0.00    -0.323 OA
ATOM      3  C   UNL     1      -4.829  -0.337  31.084  0.00  0.00    +0.213 C 
ATOM      4  C   UNL     1      -5.446  -1.375  31.946  0.00  0.00    +0.203 C 
ATOM      5  O   UNL     1      -6.382  -1.158  32.743  0.00  0.00    -0.289 OA
ATOM      6  C   UNL     1      -4.908  -2.727  31.838  0.00  0.00    +0.040 C 
ATOM      7  C   UNL     1      -4.068  -2.993  30.863  0.00  0.00    +0.031 C 
ENDROOT
BRANCH   1   8
ATOM      8  S   UNL     1      -2.290  -2.296  28.965  0.00  0.00    +0.019 S 
ATOM      9  O   UNL     1      -1.153  -2.555  29.893  0.00  0.00    -0.069 OA
ATOM     10  O   UNL     1      -2.585  -3.500  28.118  0.00  0.00    -0.069 OA
BRANCH   8  11
ATOM     11  O   UNL     1      -1.861  -1.024  27.966  0.00  0.00    -0.269 OA
ATOM     12  H   UNL     1      -1.668  -0.241  28.505  0.00  0.00    +0.243 HD
ENDBRANCH   8  11
ENDBRANCH   1   8
TORSDOF 2
