REMARK  Name = =
REMARK  2 active torsions:
REMARK  status: ('A' for Active; 'I' for Inactive)
REMARK    1  A    between atoms: S_1  and  C_16
REMARK    2  A    between atoms: C_4  and  N_7
REMARK                            x       y       z     vdW  Elec       q    Type
REMARK                         _______ _______ _______ _____ _____    ______ ____
ROOT
ATOM      1  S   UNL     1      -0.257  -5.096  28.262  0.00  0.00    -0.208 S 
ATOM      2  C   UNL     1      -0.085  -4.661  30.039  0.00  0.00    +0.042 C 
ATOM      3  C   UNL     1      -0.617  -5.785  30.858  0.00  0.00    +0.030 C 
ATOM      4  C   UNL     1      -1.691  -6.587  30.193  0.00  0.00    +0.079 C 
ATOM      5  C   UNL     1      -2.639  -5.754  29.370  0.00  0.00    +0.030 C 
ATOM      6  C   UNL     1      -2.007  -5.158  28.156  0.00  0.00    +0.042 C 
ATOM      7  H   UNL     1       0.336  -6.246  27.845  0.00  0.00    +0.088 HD
ENDROOT
BRANCH   4   8
ATOM      8  N   UNL     1      -2.456  -7.275  31.193  0.00  0.00    -0.264 N 
ATOM      9  C   UNL     1      -3.644  -6.850  31.911  0.00  0.00    +0.116 C 
ATOM     10  C   UNL     1      -3.538  -7.577  33.236  0.00  0.00    +0.112 C 
ATOM     11  N   UNL     1      -2.977  -8.837  32.847  0.00  0.00    -0.287 N 
ATOM     12  C   UNL     1      -2.179  -8.578  31.698  0.00  0.00    +0.304 C 
ATOM     13  O   UNL     1      -1.358  -9.432  31.244  0.00  0.00    -0.253 OA
ATOM     14  H   UNL     1      -3.116  -9.707  33.286  0.00  0.00    +0.151 HD
ENDBRANCH   4   8
BRANCH   1  18
ATOM     15  C   UNL     1       1.788  -2.075  25.565  0.00  0.00    +0.000 C 
ATOM     16  C   UNL     1       2.482  -3.173  26.004  0.00  0.00    +0.000 C 
ATOM     17  C   UNL     1       1.868  -4.091  26.823  0.00  0.00    +0.005 C 
ATOM     18  C   UNL     1       0.560  -3.923  27.206  0.00  0.00    +0.006 C 
ATOM     19  C   UNL     1      -0.111  -2.807  26.745  0.00  0.00    +0.005 C 
ATOM     20  C   UNL     1       0.482  -1.878  25.929  0.00  0.00    +0.000 C 
ENDBRANCH   1  18
TORSDOF 2
