REMARK  Name = =
REMARK  3 active torsions:
REMARK  status: ('A' for Active; 'I' for Inactive)
REMARK    1  A    between atoms: C_1  and  S_8
REMARK    2  A    between atoms: C_1  and  C_12
REMARK    3  A    between atoms: S_8  and  O_11
REMARK                            x       y       z     vdW  Elec       q    Type
REMARK                         _______ _______ _______ _____ _____    ______ ____
ROOT
ATOM      1  C   UNL     1      -2.079  -3.522  29.903  0.00  0.00    +0.291 C 
ATOM      2  O   UNL     1      -2.451  -2.925  31.076  0.00  0.00    -0.320 OA
ATOM      3  C   UNL     1      -3.428  -3.609  31.775  0.00  0.00    +0.213 C 
ATOM      4  C   UNL     1      -4.622  -3.612  30.901  0.00  0.00    +0.203 C 
ATOM      5  O   UNL     1      -5.745  -3.189  31.247  0.00  0.00    -0.289 OA
ATOM      6  C   UNL     1      -4.396  -4.156  29.570  0.00  0.00    +0.040 C 
ATOM      7  C   UNL     1      -3.166  -4.109  29.098  0.00  0.00    +0.035 C 
ENDROOT
BRANCH   1   8
ATOM      8  S   UNL     1      -0.800  -4.700  30.268  0.00  0.00    +0.023 S 
ATOM      9  O   UNL     1      -1.135  -5.622  31.378  0.00  0.00    -0.069 OA
ATOM     10  O   UNL     1      -0.533  -5.454  28.989  0.00  0.00    -0.069 OA
BRANCH   8  11
ATOM     11  O   UNL     1       0.588  -3.852  30.635  0.00  0.00    -0.269 OA
ATOM     12  H   UNL     1       0.454  -3.352  31.455  0.00  0.00    +0.243 HD
ENDBRANCH   8  11
ENDBRANCH   1   8
BRANCH   1  13
ATOM     13  C   UNL     1      -1.432  -2.503  28.979  0.00  0.00    +0.281 C 
ATOM     14  O   UNL     1      -0.427  -2.880  28.405  0.00  0.00    -0.274 OA
ATOM     15 CL   UNL     1      -2.123  -0.910  28.793  0.00  0.00    -0.038 Cl
ENDBRANCH   1  13
TORSDOF 3
