REMARK  Name = =
REMARK  5 active torsions:
REMARK  status: ('A' for Active; 'I' for Inactive)
REMARK    1  A    between atoms: C_1  and  S_8
REMARK    2  A    between atoms: C_1  and  C_12
REMARK    3  A    between atoms: C_3  and  N_15
REMARK    4  A    between atoms: S_8  and  O_11
REMARK    5  A    between atoms: N_15  and  N_18
REMARK                            x       y       z     vdW  Elec       q    Type
REMARK                         _______ _______ _______ _____ _____    ______ ____
ROOT
ATOM      1  C   UNL     1       0.776  -5.623  29.376  0.00  0.00    +0.292 C 
ATOM      2  O   UNL     1      -0.438  -5.833  30.005  0.00  0.00    -0.304 OA
ATOM      3  C   UNL     1      -0.381  -6.748  31.037  0.00  0.00    +0.277 C 
ATOM      4  C   UNL     1       0.752  -6.577  31.939  0.00  0.00    +0.221 C 
ATOM      5  O   UNL     1       0.724  -7.162  33.064  0.00  0.00    -0.287 OA
ATOM      6  C   UNL     1       1.862  -5.746  31.520  0.00  0.00    +0.042 C 
ATOM      7  C   UNL     1       1.875  -5.288  30.289  0.00  0.00    +0.035 C 
ENDROOT
BRANCH   1   8
ATOM      8  S   UNL     1       0.540  -4.172  28.327  0.00  0.00    +0.023 S 
ATOM      9  O   UNL     1       1.857  -3.436  28.275  0.00  0.00    -0.069 OA
ATOM     10  O   UNL     1       0.205  -4.572  26.922  0.00  0.00    -0.069 OA
BRANCH   8  11
ATOM     11  O   UNL     1      -0.659  -3.174  28.902  0.00  0.00    -0.269 OA
ATOM     12  H   UNL     1      -0.451  -2.909  29.812  0.00  0.00    +0.243 HD
ENDBRANCH   8  11
ENDBRANCH   1   8
BRANCH   1  13
ATOM     13  C   UNL     1       1.189  -6.751  28.501  0.00  0.00    +0.281 C 
ATOM     14  O   UNL     1       0.369  -7.599  28.235  0.00  0.00    -0.274 OA
ATOM     15 CL   UNL     1       2.801  -6.904  27.842  0.00  0.00    -0.038 Cl
ENDBRANCH   1  13
BRANCH   3  16
ATOM     16  N   UNL     1      -1.618  -6.676  31.775  0.00  0.00    -0.168 N 
ATOM     17  C   UNL     1      -2.639  -5.719  31.420  0.00  0.00    +0.322 C 
ATOM     18  O   UNL     1      -2.402  -4.959  30.451  0.00  0.00    -0.263 OA
BRANCH  16  19
ATOM     19  N   UNL     1      -1.928  -7.506  32.856  0.00  0.00    -0.221 N 
ATOM     20  C   UNL     1      -2.468  -8.824  32.619  0.00  0.00    +0.317 C 
ATOM     21  O   UNL     1      -2.627  -9.144  31.410  0.00  0.00    -0.264 OA
ATOM     22  H   UNL     1      -1.778  -7.193  33.777  0.00  0.00    +0.174 HD
ENDBRANCH  16  19
ENDBRANCH   3  16
TORSDOF 5
