REMARK  Name = =
REMARK  6 active torsions:
REMARK  status: ('A' for Active; 'I' for Inactive)
REMARK    1  A    between atoms: C_1  and  S_14
REMARK    2  A    between atoms: C_1  and  C_18
REMARK    3  A    between atoms: C_3  and  N_21
REMARK    4  A    between atoms: C_7  and  N_8
REMARK    5  A    between atoms: S_14  and  O_17
REMARK    6  A    between atoms: N_21  and  N_24
REMARK                            x       y       z     vdW  Elec       q    Type
REMARK                         _______ _______ _______ _____ _____    ______ ____
ROOT
ATOM      1  C   UNL     1       0.256  -6.616  29.995  0.00  0.00    +0.305 C 
ATOM      2  O   UNL     1       1.269  -7.270  29.282  0.00  0.00    -0.303 OA
ATOM      3  C   UNL     1       0.852  -7.757  28.065  0.00  0.00    +0.277 C 
ATOM      4  C   UNL     1      -0.078  -8.905  28.414  0.00  0.00    +0.222 C 
ATOM      5  O   UNL     1       0.080 -10.061  27.964  0.00  0.00    -0.287 OA
ATOM      6  C   UNL     1      -1.149  -8.514  29.309  0.00  0.00    +0.057 C 
ATOM      7  C   UNL     1      -0.981  -7.403  30.072  0.00  0.00    +0.088 C 
ENDROOT
BRANCH   7   8
ATOM      8  N   UNL     1      -2.058  -7.135  30.954  0.00  0.00    -0.258 N 
ATOM      9  C   UNL     1      -3.072  -6.126  31.004  0.00  0.00    +0.099 C 
ATOM     10  C   UNL     1      -4.313  -6.971  31.404  0.00  0.00    +0.031 C 
ATOM     11  C   UNL     1      -3.713  -7.731  32.595  0.00  0.00    +0.087 C 
ATOM     12  C   UNL     1      -2.351  -8.017  32.070  0.00  0.00    +0.229 C 
ATOM     13  O   UNL     1      -1.581  -8.894  32.536  0.00  0.00    -0.275 OA
ENDBRANCH   7   8
BRANCH   1  14
ATOM     14  S   UNL     1      -0.025  -5.000  29.391  0.00  0.00    +0.024 S 
ATOM     15  O   UNL     1      -1.145  -4.953  28.378  0.00  0.00    -0.069 OA
ATOM     16  O   UNL     1       1.218  -4.422  28.732  0.00  0.00    -0.069 OA
BRANCH  14  17
ATOM     17  O   UNL     1      -0.419  -3.953  30.631  0.00  0.00    -0.269 OA
ATOM     18  H   UNL     1      -1.211  -4.277  31.088  0.00  0.00    +0.243 HD
ENDBRANCH  14  17
ENDBRANCH   1  14
BRANCH   1  19
ATOM     19  C   UNL     1       0.797  -6.544  31.411  0.00  0.00    +0.282 C 
ATOM     20  O   UNL     1       0.185  -5.901  32.254  0.00  0.00    -0.274 OA
ATOM     21 CL   UNL     1       2.268  -7.341  31.892  0.00  0.00    -0.038 Cl
ENDBRANCH   1  19
BRANCH   3  22
ATOM     22  N   UNL     1       1.910  -8.335  27.316  0.00  0.00    -0.168 N 
ATOM     23  C   UNL     1       3.107  -8.730  27.963  0.00  0.00    +0.322 C 
ATOM     24  O   UNL     1       4.083  -9.252  27.351  0.00  0.00    -0.263 OA
BRANCH  22  25
ATOM     25  N   UNL     1       1.794  -8.540  25.949  0.00  0.00    -0.221 N 
ATOM     26  C   UNL     1       1.936  -7.574  24.944  0.00  0.00    +0.317 C 
ATOM     27  O   UNL     1       2.190  -6.397  25.258  0.00  0.00    -0.264 OA
ATOM     28  H   UNL     1       1.591  -9.457  25.655  0.00  0.00    +0.174 HD
ENDBRANCH  22  25
ENDBRANCH   3  22
TORSDOF 6
