REMARK  Name = =
REMARK  6 active torsions:
REMARK  status: ('A' for Active; 'I' for Inactive)
REMARK    1  A    between atoms: S_1  and  S_7
REMARK    2  A    between atoms: S_1  and  C_30
REMARK    3  A    between atoms: C_4  and  N_12
REMARK    4  A    between atoms: C_14  and  C_18
REMARK    5  A    between atoms: C_21  and  C_24
REMARK    6  A    between atoms: C_24  and  O_26
REMARK                            x       y       z     vdW  Elec       q    Type
REMARK                         _______ _______ _______ _____ _____    ______ ____
ROOT
ATOM      1  S   UNL     1      -0.131  -4.079  29.170  0.00  0.00    -0.162 S 
ATOM      2  C   UNL     1      -0.329  -4.511  27.468  0.00  0.00    +0.054 C 
ATOM      3  C   UNL     1       1.007  -4.918  26.899  0.00  0.00    +0.031 C 
ATOM      4  C   UNL     1       1.747  -3.646  26.581  0.00  0.00    +0.079 C 
ATOM      5  C   UNL     1       1.689  -2.734  27.803  0.00  0.00    +0.031 C 
ATOM      6  C   UNL     1       1.516  -3.619  29.011  0.00  0.00    +0.054 C 
ENDROOT
BRANCH   1   7
ATOM      7  S   UNL     1      -1.269  -2.748  29.859  0.00  0.00    -0.182 S 
ATOM      8  C   UNL     1      -1.811  -1.449  28.717  0.00  0.00    +0.063 C 
ATOM      9  C   UNL     1      -2.907  -0.867  29.540  0.00  0.00    +0.080 C 
ATOM     10  N   UNL     1      -3.656  -1.907  30.130  0.00  0.00    -0.288 NA
ATOM     11  C   UNL     1      -2.887  -3.101  30.259  0.00  0.00    +0.116 C 
ATOM     12  H   UNL     1      -0.408  -2.483  30.878  0.00  0.00    +0.094 HD
ATOM     13  H   UNL     1      -4.471  -2.100  29.547  0.00  0.00    +0.124 HD
ENDBRANCH   1   7
BRANCH   4  14
ATOM     14  N   UNL     1       3.040  -3.803  26.025  0.00  0.00    -0.264 N 
ATOM     15  C   UNL     1       3.428  -3.325  24.688  0.00  0.00    +0.119 C 
ATOM     16  C   UNL     1       4.911  -3.173  24.717  0.00  0.00    +0.115 C 
ATOM     17  N   UNL     1       5.346  -3.773  25.943  0.00  0.00    -0.285 N 
ATOM     18  C   UNL     1       4.217  -4.403  26.547  0.00  0.00    +0.304 C 
ATOM     19  O   UNL     1       4.257  -5.315  27.382  0.00  0.00    -0.253 OA
ATOM     20  H   UNL     1       6.261  -3.754  26.305  0.00  0.00    +0.151 HD
BRANCH  16  21
ATOM     21  C   UNL     1       5.465  -3.992  23.586  0.00  0.00    -0.003 C 
ATOM     22  C   UNL     1       5.505  -5.361  23.695  0.00  0.00    -0.002 C 
ATOM     23  C   UNL     1       6.018  -6.082  22.639  0.00  0.00    +0.006 C 
ATOM     24  C   UNL     1       6.485  -5.474  21.497  0.00  0.00    +0.075 C 
ATOM     25  C   UNL     1       6.430  -4.114  21.422  0.00  0.00    +0.006 C 
ATOM     26  C   UNL     1       5.920  -3.361  22.466  0.00  0.00    -0.002 C 
BRANCH  24  27
ATOM     27  C   UNL     1       7.022  -6.281  20.401  0.00  0.00    +0.338 C 
ATOM     28  O   UNL     1       7.470  -5.694  19.380  0.00  0.00    -0.245 OA
BRANCH  27  29
ATOM     29  O   UNL     1       7.027  -7.667  20.507  0.00  0.00    -0.477 OA
ATOM     30  H   UNL     1       6.688  -8.079  21.277  0.00  0.00    +0.295 HD
ENDBRANCH  27  29
ENDBRANCH  24  27
ENDBRANCH  16  21
ENDBRANCH   4  14
BRANCH   1  34
ATOM     31  C   UNL     1      -0.319  -7.915  31.687  0.00  0.00    +0.000 C 
ATOM     32  C   UNL     1      -1.304  -7.650  30.760  0.00  0.00    +0.000 C 
ATOM     33  C   UNL     1      -1.218  -6.500  30.006  0.00  0.00    +0.005 C 
ATOM     34  C   UNL     1      -0.195  -5.599  30.132  0.00  0.00    +0.016 C 
ATOM     35  C   UNL     1       0.770  -5.894  31.064  0.00  0.00    +0.005 C 
ATOM     36  C   UNL     1       0.713  -7.035  31.832  0.00  0.00    +0.000 C 
ENDBRANCH   1  34
TORSDOF 6
