REMARK  Name = =
REMARK  7 active torsions:
REMARK  status: ('A' for Active; 'I' for Inactive)
REMARK    1  A    between atoms: C_1  and  S_14
REMARK    2  A    between atoms: C_1  and  C_18
REMARK    3  A    between atoms: C_3  and  N_21
REMARK    4  A    between atoms: C_7  and  N_8
REMARK    5  A    between atoms: S_14  and  O_17
REMARK    6  A    between atoms: N_21  and  N_24
REMARK    7  A    between atoms: N_24  and  C_27
REMARK                            x       y       z     vdW  Elec       q    Type
REMARK                         _______ _______ _______ _____ _____    ______ ____
ROOT
ATOM      1  C   UNL     1       1.186  -5.659  28.663  0.00  0.00    +0.305 C 
ATOM      2  O   UNL     1       1.353  -6.912  28.058  0.00  0.00    -0.303 OA
ATOM      3  C   UNL     1       0.386  -7.825  28.367  0.00  0.00    +0.277 C 
ATOM      4  C   UNL     1      -0.867  -7.306  27.678  0.00  0.00    +0.223 C 
ATOM      5  O   UNL     1      -1.569  -8.003  26.935  0.00  0.00    -0.287 OA
ATOM      6  C   UNL     1      -1.143  -5.917  27.989  0.00  0.00    +0.057 C 
ATOM      7  C   UNL     1      -0.154  -5.121  28.462  0.00  0.00    +0.088 C 
ENDROOT
BRANCH   7   8
ATOM      8  N   UNL     1      -0.550  -3.762  28.674  0.00  0.00    -0.258 N 
ATOM      9  C   UNL     1      -0.862  -3.031  29.878  0.00  0.00    +0.099 C 
ATOM     10  C   UNL     1      -2.019  -2.108  29.469  0.00  0.00    +0.031 C 
ATOM     11  C   UNL     1      -1.657  -1.702  28.056  0.00  0.00    +0.087 C 
ATOM     12  C   UNL     1      -0.767  -2.819  27.599  0.00  0.00    +0.229 C 
ATOM     13  O   UNL     1      -0.320  -2.847  26.424  0.00  0.00    -0.275 OA
ENDBRANCH   7   8
BRANCH   1  14
ATOM     14  S   UNL     1       2.416  -4.641  27.807  0.00  0.00    +0.024 S 
ATOM     15  O   UNL     1       3.771  -5.311  27.935  0.00  0.00    -0.069 OA
ATOM     16  O   UNL     1       2.544  -3.312  28.473  0.00  0.00    -0.069 OA
BRANCH  14  17
ATOM     17  O   UNL     1       2.091  -4.537  26.173  0.00  0.00    -0.269 OA
ATOM     18  H   UNL     1       2.765  -3.987  25.744  0.00  0.00    +0.243 HD
ENDBRANCH  14  17
ENDBRANCH   1  14
BRANCH   1  19
ATOM     19  C   UNL     1       1.644  -5.795  30.043  0.00  0.00    +0.282 C 
ATOM     20  O   UNL     1       1.845  -6.891  30.532  0.00  0.00    -0.274 OA
ATOM     21 CL   UNL     1       1.934  -4.426  31.063  0.00  0.00    -0.038 Cl
ENDBRANCH   1  19
BRANCH   3  22
ATOM     22  N   UNL     1       0.698  -9.055  27.685  0.00  0.00    -0.161 N 
ATOM     23  C   UNL     1       0.080 -10.239  28.170  0.00  0.00    +0.323 C 
ATOM     24  O   UNL     1      -0.701 -10.210  29.153  0.00  0.00    -0.263 OA
BRANCH  22  25
ATOM     25  N   UNL     1       1.567  -9.194  26.600  0.00  0.00    -0.173 N 
ATOM     26  C   UNL     1       1.583  -8.072  25.707  0.00  0.00    +0.324 C 
ATOM     27  O   UNL     1       2.366  -8.132  24.727  0.00  0.00    -0.263 OA
BRANCH  25  28
ATOM     28  C   UNL     1       2.389 -10.295  26.329  0.00  0.00    +0.073 C 
ATOM     29  C   UNL     1       3.684 -10.352  26.785  0.00  0.00    +0.015 C 
ATOM     30  C   UNL     1       4.511 -11.436  26.506  0.00  0.00    +0.001 C 
ATOM     31  C   UNL     1       4.024 -12.486  25.751  0.00  0.00    +0.000 C 
ATOM     32  C   UNL     1       2.733 -12.447  25.287  0.00  0.00    +0.001 C 
ATOM     33  C   UNL     1       1.927 -11.356  25.578  0.00  0.00    +0.015 C 
ATOM     34  C   UNL     1       0.639 -11.394  25.080  0.00  0.00    +0.001 C 
ATOM     35  C   UNL     1       0.143 -12.434  24.335  0.00  0.00    +0.000 C 
ATOM     36  C   UNL     1       0.951 -13.515  24.051  0.00  0.00    +0.000 C 
ATOM     37  C   UNL     1       2.258 -13.514  24.536  0.00  0.00    +0.000 C 
ATOM     38  C   UNL     1       5.824 -11.476  26.971  0.00  0.00    +0.000 C 
ATOM     39  C   UNL     1       6.362 -10.464  27.717  0.00  0.00    +0.000 C 
ATOM     40  C   UNL     1       5.540  -9.369  28.004  0.00  0.00    +0.000 C 
ATOM     41  C   UNL     1       4.241  -9.335  27.541  0.00  0.00    +0.001 C 
ENDBRANCH  25  28
ENDBRANCH  22  25
ENDBRANCH   3  22
TORSDOF 7
