REMARK  Name = =
REMARK  1 active torsions:
REMARK  status: ('A' for Active; 'I' for Inactive)
REMARK    1  A    between atoms: C_11  and  N_15
REMARK                            x       y       z     vdW  Elec       q    Type
REMARK                         _______ _______ _______ _____ _____    ______ ____
ROOT
ATOM      1  N   UNL     1      -9.371 -44.148  29.008  0.00  0.00    -0.245 NA
ATOM      2  C   UNL     1     -10.184 -44.616  30.000  0.00  0.00    +0.082 C 
ATOM      3  C   UNL     1     -11.129 -43.762  30.573  0.00  0.00    +0.031 C 
ATOM      4  C   UNL     1     -11.224 -42.465  30.127  0.00  0.00    +0.004 C 
ATOM      5  C   UNL     1     -10.366 -42.060  29.117  0.00  0.00    +0.018 C 
ATOM      6  C   UNL     1      -9.437 -42.908  28.558  0.00  0.00    +0.081 C 
ATOM      7  C   UNL     1      -8.577 -42.486  27.540  0.00  0.00    +0.019 C 
ATOM      8  C   UNL     1      -8.633 -41.196  27.059  0.00  0.00    +0.002 C 
ATOM      9  C   UNL     1      -9.564 -40.346  27.619  0.00  0.00    +0.000 C 
ATOM     10  C   UNL     1     -10.415 -40.757  28.625  0.00  0.00    +0.001 C 
ATOM     11  C   UNL     1     -11.973 -44.190  31.570  0.00  0.00    +0.049 C 
ATOM     12  C   UNL     1     -11.852 -45.514  31.991  0.00  0.00    +0.015 C 
ATOM     13  C   UNL     1     -10.921 -46.355  31.426  0.00  0.00    +0.003 C 
ATOM     14  C   UNL     1     -10.083 -45.916  30.432  0.00  0.00    +0.019 C 
ENDROOT
BRANCH  11  15
ATOM     15  N   UNL     1     -12.922 -43.336  32.180  0.00  0.00    -0.307 N 
ATOM     16  C   UNL     1     -12.963 -42.224  33.086  0.00  0.00    +0.093 C 
ATOM     17  C   UNL     1     -14.362 -41.897  32.583  0.00  0.00    +0.043 C 
ATOM     18  C   UNL     1     -14.386 -43.318  32.047  0.00  0.00    +0.093 C 
ENDBRANCH  11  15
TORSDOF 1
