REMARK  Name = =
REMARK  1 active torsions:
REMARK  status: ('A' for Active; 'I' for Inactive)
REMARK    1  A    between atoms: S_1  and  O_5
REMARK                            x       y       z     vdW  Elec       q    Type
REMARK                         _______ _______ _______ _____ _____    ______ ____
ROOT
ATOM      1  S   UNL     1      -4.357  -3.733  32.175  0.00  0.00    +0.139 S 
ATOM      2  O   UNL     1      -4.193  -5.214  31.922  0.00  0.00    -0.041 OA
ATOM      3  O   UNL     1      -4.621  -3.508  33.648  0.00  0.00    -0.041 OA
ATOM      4  F   UNL     1      -5.635  -3.110  31.277  0.00  0.00    -0.056 F 
ENDROOT
BRANCH   1   5
ATOM      5  O   UNL     1      -2.943  -2.949  31.796  0.00  0.00    -0.246 OA
ATOM      6  H   UNL     1      -2.217  -3.320  32.322  0.00  0.00    +0.245 HD
ENDBRANCH   1   5
TORSDOF 1
