REMARK  Name = =
REMARK  4 active torsions:
REMARK  status: ('A' for Active; 'I' for Inactive)
REMARK    1  A    between atoms: P_1  and  O_2
REMARK    2  A    between atoms: P_1  and  S_3
REMARK    3  A    between atoms: P_1  and  O_6
REMARK    4  A    between atoms: O_2  and  O_5
REMARK                            x       y       z     vdW  Elec       q    Type
REMARK                         _______ _______ _______ _____ _____    ______ ____
ROOT
ATOM      1  P   UNL     1      -6.423  -1.210  32.114  0.00  0.00    +0.268 P 
ENDROOT
BRANCH   1   2
ATOM      2  S   UNL     1      -8.049  -2.513  32.541  0.00  0.00    -0.092 S 
ATOM      3  H   UNL     1      -9.139  -1.778  32.890  0.00  0.00    +0.111 HD
ENDBRANCH   1   2
BRANCH   1   4
ATOM      4  O   UNL     1      -4.805  -1.256  31.637  0.00  0.00    -0.340 OA
ATOM      5  H   UNL     1      -4.461  -0.351  31.571  0.00  0.00    +0.218 HD
ENDBRANCH   1   4
BRANCH   1   6
ATOM      6  O   UNL     1      -7.302  -0.331  31.276  0.00  0.00    -0.175 OA
BRANCH   6   7
ATOM      7  O   UNL     1      -6.127   0.416  32.118  0.00  0.00    -0.244 OA
ATOM      8  H   UNL     1      -6.165   1.370  31.949  0.00  0.00    +0.254 HD
ENDBRANCH   6   7
ENDBRANCH   1   6
TORSDOF 4
REMARK  Name = =
REMARK  4 active torsions:
REMARK  status: ('A' for Active; 'I' for Inactive)
REMARK    1  A    between atoms: P_1  and  O_2
REMARK    2  A    between atoms: P_1  and  S_3
REMARK    3  A    between atoms: P_1  and  O_6
REMARK    4  A    between atoms: O_2  and  O_5
REMARK                            x       y       z     vdW  Elec       q    Type
REMARK                         _______ _______ _______ _____ _____    ______ ____
ROOT
ATOM      1  O   HOH     1      -6.298  -1.840  33.677  0.00  0.00    -0.253 OA
ATOM      2  H   HOH     0      -5.328  -1.840  33.677  0.00  0.00    +0.253 HD
ENDROOT
TORSDOF 0
REMARK  Name = =
REMARK  4 active torsions:
REMARK  status: ('A' for Active; 'I' for Inactive)
REMARK    1  A    between atoms: P_1  and  O_2
REMARK    2  A    between atoms: P_1  and  S_3
REMARK    3  A    between atoms: P_1  and  O_6
REMARK    4  A    between atoms: O_2  and  O_5
REMARK                            x       y       z     vdW  Elec       q    Type
REMARK                         _______ _______ _______ _____ _____    ______ ____
ROOT
ATOM      1  S   UNL     1      -4.338  -2.879  31.508  0.00  0.00    +0.150 S 
ATOM      2  O   UNL     1      -4.287  -3.522  32.841  0.00  0.00    -0.045 OA
ATOM      3  O   UNL     1      -5.248  -3.551  30.544  0.00  0.00    -0.045 OA
ATOM      4  F   UNL     1      -2.764  -2.856  30.898  0.00  0.00    -0.060 F 
ENDROOT
TORSDOF 0
