REMARK  Name = =
REMARK  5 active torsions:
REMARK  status: ('A' for Active; 'I' for Inactive)
REMARK    1  A    between atoms: C_4  and  O_10
REMARK    2  A    between atoms: C_5  and  O_9
REMARK    3  A    between atoms: C_6  and  O_8
REMARK    4  A    between atoms: O_12  and  O_15
REMARK    5  A    between atoms: O_15  and  S_16
REMARK                            x       y       z     vdW  Elec       q    Type
REMARK                         _______ _______ _______ _____ _____    ______ ____
ROOT
ATOM      1  O   UNL     1      -7.748   0.795  31.243  0.00  0.00    -0.286 OA
ATOM      2  C   UNL     1      -8.795   0.909  30.338  0.00  0.00    +0.202 C 
ATOM      3  C   UNL     1      -9.829   1.777  30.650  0.00  0.00    +0.082 C 
ATOM      4  C   UNL     1     -10.910   1.952  29.811  0.00  0.00    +0.174 C 
ATOM      5  C   UNL     1     -11.001   1.255  28.605  0.00  0.00    +0.202 C 
ATOM      6  C   UNL     1      -9.967   0.399  28.310  0.00  0.00    +0.174 C 
ATOM      7  C   UNL     1      -8.880   0.229  29.166  0.00  0.00    +0.082 C 
ENDROOT
BRANCH   6   8
ATOM      8  O   UNL     1     -10.008  -0.317  27.127  0.00  0.00    -0.503 OA
ATOM      9  H   UNL     1     -10.732  -0.213  26.541  0.00  0.00    +0.292 HD
ENDBRANCH   6   8
BRANCH   5  10
ATOM     10  O   UNL     1     -12.088   1.435  27.765  0.00  0.00    -0.501 OA
ATOM     11  H   UNL     1     -12.772   2.029  28.005  0.00  0.00    +0.292 HD
ENDBRANCH   5  10
BRANCH   4  12
ATOM     12  O   UNL     1     -11.936   2.828  30.142  0.00  0.00    -0.503 OA
ATOM     13  H   UNL     1     -11.901   3.309  30.945  0.00  0.00    +0.292 HD
ENDBRANCH   4  12
TORSDOF 3
REMARK  Name = =
REMARK  5 active torsions:
REMARK  status: ('A' for Active; 'I' for Inactive)
REMARK    1  A    between atoms: C_4  and  O_10
REMARK    2  A    between atoms: C_5  and  O_9
REMARK    3  A    between atoms: C_6  and  O_8
REMARK    4  A    between atoms: O_12  and  O_15
REMARK    5  A    between atoms: O_15  and  S_16
REMARK                            x       y       z     vdW  Elec       q    Type
REMARK                         _______ _______ _______ _____ _____    ______ ____
ROOT
ATOM      1  P   UNL     1      -7.256  -0.754  31.693  0.00  0.00    +0.000 P 
ENDROOT
TORSDOF 0
REMARK  Name = =
REMARK  5 active torsions:
REMARK  status: ('A' for Active; 'I' for Inactive)
REMARK    1  A    between atoms: C_4  and  O_10
REMARK    2  A    between atoms: C_5  and  O_9
REMARK    3  A    between atoms: C_6  and  O_8
REMARK    4  A    between atoms: O_12  and  O_15
REMARK    5  A    between atoms: O_15  and  S_16
REMARK                            x       y       z     vdW  Elec       q    Type
REMARK                         _______ _______ _______ _____ _____    ______ ____
ROOT
ATOM      1  S   UNL     1      -5.243  -2.556  31.444  0.00  0.00    +0.168 S 
ATOM      2  O   UNL     1      -4.465  -1.311  31.061  0.00  0.00    -0.039 OA
ATOM      3  O   UNL     1      -5.133  -2.826  32.924  0.00  0.00    -0.039 OA
ATOM      4  F   UNL     1      -4.735  -3.879  30.593  0.00  0.00    -0.054 F 
ENDROOT
BRANCH   1   5
ATOM      5  O   UNL     1      -6.857  -2.223  31.024  0.00  0.00    -0.067 OA
BRANCH   5   6
ATOM      6  O   UNL     1      -7.886  -2.006  31.072  0.00  0.00    -0.225 OA
ATOM      7  H   UNL     1      -8.246  -1.944  30.173  0.00  0.00    +0.255 HD
ENDBRANCH   5   6
ENDBRANCH   1   5
TORSDOF 2
REMARK  Name = =
REMARK  5 active torsions:
REMARK  status: ('A' for Active; 'I' for Inactive)
REMARK    1  A    between atoms: C_4  and  O_10
REMARK    2  A    between atoms: C_5  and  O_9
REMARK    3  A    between atoms: C_6  and  O_8
REMARK    4  A    between atoms: O_12  and  O_15
REMARK    5  A    between atoms: O_15  and  S_16
REMARK                            x       y       z     vdW  Elec       q    Type
REMARK                         _______ _______ _______ _____ _____    ______ ____
ROOT
ATOM      1  S   UNL     1      -7.337  -2.570  32.708  0.00  0.00    -0.114 S 
ATOM      2  H   UNL     1      -5.977  -2.570  32.708  0.00  0.00    +0.114 HD
ENDROOT
TORSDOF 0
REMARK  Name = =
REMARK  5 active torsions:
REMARK  status: ('A' for Active; 'I' for Inactive)
REMARK    1  A    between atoms: C_4  and  O_10
REMARK    2  A    between atoms: C_5  and  O_9
REMARK    3  A    between atoms: C_6  and  O_8
REMARK    4  A    between atoms: O_12  and  O_15
REMARK    5  A    between atoms: O_15  and  S_16
REMARK                            x       y       z     vdW  Elec       q    Type
REMARK                         _______ _______ _______ _____ _____    ______ ____
ROOT
ATOM      1  O   HOH     1      -7.418   0.425  32.907  0.00  0.00    -0.253 OA
ATOM      2  H   HOH     0      -6.448   0.425  32.907  0.00  0.00    +0.253 HD
ENDROOT
TORSDOF 0
