REMARK  Name = =
REMARK  10 active torsions:
REMARK  status: ('A' for Active; 'I' for Inactive)
REMARK    1  A    between atoms: P_1  and  O_2
REMARK    2  A    between atoms: P_1  and  O_19
REMARK    3  A    between atoms: O_2  and  S_3
REMARK    4  A    between atoms: O_4  and  S_5
REMARK    5  A    between atoms: O_4  and  C_21
REMARK    6  A    between atoms: O_9  and  C_10
REMARK    7  A    between atoms: O_19  and  C_20
REMARK    8  A    between atoms: C_22  and  O_28
REMARK    9  A    between atoms: C_23  and  O_27
REMARK   10  A    between atoms: C_24  and  O_26
REMARK                            x       y       z     vdW  Elec       q    Type
REMARK                         _______ _______ _______ _____ _____    ______ ____
ROOT
ATOM      1  C   UNL     1      -2.503  -6.230  30.050  0.00  0.00    +0.187 C 
ATOM      2  C   UNL     1      -2.238  -5.990  31.378  0.00  0.00    +0.244 C 
ATOM      3  C   UNL     1      -1.540  -6.886  32.131  0.00  0.00    +0.211 C 
ATOM      4  C   UNL     1      -1.080  -8.076  31.541  0.00  0.00    +0.205 C 
ATOM      5  C   UNL     1      -1.327  -8.345  30.217  0.00  0.00    +0.174 C 
ATOM      6  C   UNL     1      -2.052  -7.390  29.487  0.00  0.00    +0.080 C 
ENDROOT
BRANCH   5   7
ATOM      7  O   UNL     1      -0.897  -9.507  29.579  0.00  0.00    -0.503 OA
ATOM      8  H   UNL     1      -0.412 -10.152  30.056  0.00  0.00    +0.292 HD
ENDBRANCH   5   7
BRANCH   4   9
ATOM      9  O   UNL     1      -0.367  -8.974  32.336  0.00  0.00    -0.501 OA
ATOM     10  H   UNL     1      -0.207  -8.776  33.238  0.00  0.00    +0.292 HD
ENDBRANCH   4   9
BRANCH   3  11
ATOM     11  O   UNL     1      -1.258  -6.661  33.489  0.00  0.00    -0.501 OA
ATOM     12  H   UNL     1      -1.554  -5.875  33.905  0.00  0.00    +0.292 HD
ENDBRANCH   3  11
BRANCH   2  13
ATOM     13  O   UNL     1      -3.281  -4.754  31.138  0.00  0.00    -0.331 OA
BRANCH  13  14
ATOM     14  S   UNL     1      -4.034  -3.926  32.392  0.00  0.00    +0.186 S 
ATOM     15  O   UNL     1      -5.494  -3.774  32.112  0.00  0.00    -0.031 OA
ATOM     16  O   UNL     1      -3.902  -4.671  33.692  0.00  0.00    -0.031 OA
ATOM     17  F   UNL     1      -3.297  -2.412  32.571  0.00  0.00    -0.047 F 
ENDBRANCH  13  14
ENDBRANCH   2  13
BRANCH   1  18
ATOM     18  O   UNL     1      -3.223  -5.260  29.362  0.00  0.00    -0.435 OA
BRANCH  18  19
ATOM     19  P   UNL     1      -3.151  -3.664  29.804  0.00  0.00    +0.343 P 
BRANCH  19  20
ATOM     20  O   UNL     1      -4.271  -2.662  29.904  0.00  0.00    -0.249 OA
BRANCH  20  21
ATOM     21  S   UNL     1      -2.548  -1.709  29.425  0.00  0.00    -0.016 S 
ATOM     22  H   UNL     1      -2.787  -0.376  29.300  0.00  0.00    +0.134 HD
ENDBRANCH  20  21
ENDBRANCH  19  20
ENDBRANCH  18  19
ENDBRANCH   1  18
TORSDOF 9
REMARK  Name = =
REMARK  10 active torsions:
REMARK  status: ('A' for Active; 'I' for Inactive)
REMARK    1  A    between atoms: P_1  and  O_2
REMARK    2  A    between atoms: P_1  and  O_19
REMARK    3  A    between atoms: O_2  and  S_3
REMARK    4  A    between atoms: O_4  and  S_5
REMARK    5  A    between atoms: O_4  and  C_21
REMARK    6  A    between atoms: O_9  and  C_10
REMARK    7  A    between atoms: O_19  and  C_20
REMARK    8  A    between atoms: C_22  and  O_28
REMARK    9  A    between atoms: C_23  and  O_27
REMARK   10  A    between atoms: C_24  and  O_26
REMARK                            x       y       z     vdW  Elec       q    Type
REMARK                         _______ _______ _______ _____ _____    ______ ____
ROOT
ATOM      1  C   UNL     1      -0.623  -4.197  29.518  0.00  0.00    +0.175 C 
ATOM      2  C   UNL     1      -0.216  -2.827  29.908  0.00  0.00    +0.106 C 
ATOM      3  N   UNL     1       0.921  -2.575  29.399  0.00  0.00    -0.246 NA
ATOM      4  C   UNL     1       1.417  -3.680  28.635  0.00  0.00    +0.080 C 
ATOM      5  C   UNL     1       0.487  -4.679  28.696  0.00  0.00    +0.028 C 
ATOM      6  C   UNL     1       0.762  -5.867  28.010  0.00  0.00    -0.000 C 
ATOM      7  C   UNL     1       1.925  -6.047  27.292  0.00  0.00    -0.000 C 
ATOM      8  C   UNL     1       2.832  -5.007  27.262  0.00  0.00    +0.002 C 
ATOM      9  C   UNL     1       2.608  -3.824  27.916  0.00  0.00    +0.019 C 
ENDROOT
BRANCH   1  10
ATOM     10  O   UNL     1      -1.847  -4.250  28.924  0.00  0.00    -0.374 OA
ATOM     11  H   UNL     1      -2.519  -3.913  29.537  0.00  0.00    +0.211 HD
ENDBRANCH   1  10
TORSDOF 1
