REMARK  Name = =
REMARK  6 active torsions:
REMARK  status: ('A' for Active; 'I' for Inactive)
REMARK    1  A    between atoms: O_2  and  O_19
REMARK    2  A    between atoms: O_19  and  C_20
REMARK    3  A    between atoms: C_21  and  C_26
REMARK    4  A    between atoms: C_22  and  O_35
REMARK    5  A    between atoms: C_23  and  O_34
REMARK    6  A    between atoms: C_24  and  O_33
REMARK                            x       y       z     vdW  Elec       q    Type
REMARK                         _______ _______ _______ _____ _____    ______ ____
ROOT
ATOM      1  P   UNL     1      -2.562  -6.007  31.617  0.00  0.00    +0.000 P 
ENDROOT
TORSDOF 0
REMARK  Name = =
REMARK  6 active torsions:
REMARK  status: ('A' for Active; 'I' for Inactive)
REMARK    1  A    between atoms: O_2  and  O_19
REMARK    2  A    between atoms: O_19  and  C_20
REMARK    3  A    between atoms: C_21  and  C_26
REMARK    4  A    between atoms: C_22  and  O_35
REMARK    5  A    between atoms: C_23  and  O_34
REMARK    6  A    between atoms: C_24  and  O_33
REMARK                            x       y       z     vdW  Elec       q    Type
REMARK                         _______ _______ _______ _____ _____    ______ ____
ROOT
ATOM      1  C   UNL     1       0.093  -6.514  31.459  0.00  0.00    +0.187 C 
ATOM      2  C   UNL     1       1.060  -6.117  30.514  0.00  0.00    +0.079 C 
ATOM      3  C   UNL     1       2.328  -5.816  30.931  0.00  0.00    +0.172 C 
ATOM      4  C   UNL     1       2.669  -5.905  32.301  0.00  0.00    +0.202 C 
ATOM      5  C   UNL     1       1.736  -6.288  33.212  0.00  0.00    +0.174 C 
ATOM      6  C   UNL     1       0.461  -6.586  32.773  0.00  0.00    +0.081 C 
ENDROOT
BRANCH   2   7
ATOM      7  C   UNL     1       0.669  -6.014  29.099  0.00  0.00    +0.144 C 
ATOM      8  O   UNL     1       0.151  -4.701  28.868  0.00  0.00    -0.344 OA
ATOM      9  C   UNL     1      -0.233  -4.632  27.507  0.00  0.00    +0.206 C 
ATOM     10  C   UNL     1       1.049  -4.430  26.767  0.00  0.00    +0.180 C 
ATOM     11  O   UNL     1       1.087  -3.868  25.713  0.00  0.00    -0.293 OA
ATOM     12  C   UNL     1       2.254  -5.005  27.486  0.00  0.00    +0.070 C 
ATOM     13  C   UNL     1       1.720  -6.307  28.084  0.00  0.00    +0.042 C 
ENDBRANCH   2   7
BRANCH   5  14
ATOM     14  O   UNL     1       2.015  -6.388  34.543  0.00  0.00    -0.503 OA
ATOM     15  H   UNL     1       2.875  -6.189  34.858  0.00  0.00    +0.292 HD
ENDBRANCH   5  14
BRANCH   4  16
ATOM     16  O   UNL     1       3.969  -5.587  32.646  0.00  0.00    -0.501 OA
ATOM     17  H   UNL     1       4.579  -5.328  31.984  0.00  0.00    +0.292 HD
ENDBRANCH   4  16
BRANCH   3  18
ATOM     18  O   UNL     1       3.346  -5.414  30.075  0.00  0.00    -0.503 OA
ATOM     19  H   UNL     1       3.182  -5.336  29.156  0.00  0.00    +0.292 HD
ENDBRANCH   3  18
BRANCH   1  20
ATOM     20  O   UNL     1      -1.177  -6.806  30.983  0.00  0.00    -0.337 OA
BRANCH  20  21
ATOM     21  O   UNL     1      -2.423  -5.974  30.133  0.00  0.00    -0.201 OA
ATOM     22  H   UNL     1      -3.175  -6.571  29.996  0.00  0.00    +0.267 HD
ENDBRANCH  20  21
ENDBRANCH   1  20
TORSDOF 6
REMARK  Name = =
REMARK  6 active torsions:
REMARK  status: ('A' for Active; 'I' for Inactive)
REMARK    1  A    between atoms: O_2  and  O_19
REMARK    2  A    between atoms: O_19  and  C_20
REMARK    3  A    between atoms: C_21  and  C_26
REMARK    4  A    between atoms: C_22  and  O_35
REMARK    5  A    between atoms: C_23  and  O_34
REMARK    6  A    between atoms: C_24  and  O_33
REMARK                            x       y       z     vdW  Elec       q    Type
REMARK                         _______ _______ _______ _____ _____    ______ ____
ROOT
ATOM      1  S   UNL     1      -4.181  -6.988  30.724  0.00  0.00    -0.114 S 
ATOM      2  H   UNL     1      -2.821  -6.988  30.724  0.00  0.00    +0.114 HD
ENDROOT
TORSDOF 0
REMARK  Name = =
REMARK  6 active torsions:
REMARK  status: ('A' for Active; 'I' for Inactive)
REMARK    1  A    between atoms: O_2  and  O_19
REMARK    2  A    between atoms: O_19  and  C_20
REMARK    3  A    between atoms: C_21  and  C_26
REMARK    4  A    between atoms: C_22  and  O_35
REMARK    5  A    between atoms: C_23  and  O_34
REMARK    6  A    between atoms: C_24  and  O_33
REMARK                            x       y       z     vdW  Elec       q    Type
REMARK                         _______ _______ _______ _____ _____    ______ ____
ROOT
ATOM      1  O   UNL     1      -2.252  -6.658  33.145  0.00  0.00    -0.039 OA
ATOM      2  S   UNL     1      -3.000  -8.160  33.202  0.00  0.00    +0.170 S 
ATOM      3  O   UNL     1      -2.676  -8.799  34.535  0.00  0.00    -0.039 OA
ATOM      4  O   UNL     1      -4.493  -7.993  33.176  0.00  0.00    -0.039 OA
ATOM      5  F   UNL     1      -2.449  -9.195  32.015  0.00  0.00    -0.054 F 
ENDROOT
TORSDOF 0
REMARK  Name = =
REMARK  6 active torsions:
REMARK  status: ('A' for Active; 'I' for Inactive)
REMARK    1  A    between atoms: O_2  and  O_19
REMARK    2  A    between atoms: O_19  and  C_20
REMARK    3  A    between atoms: C_21  and  C_26
REMARK    4  A    between atoms: C_22  and  O_35
REMARK    5  A    between atoms: C_23  and  O_34
REMARK    6  A    between atoms: C_24  and  O_33
REMARK                            x       y       z     vdW  Elec       q    Type
REMARK                         _______ _______ _______ _____ _____    ______ ____
ROOT
ATOM      1  O   UNL     1      -3.522  -4.828  30.949  0.00  0.00    -0.212 OA
ATOM      2  C   UNL     1      -3.268  -3.536  31.415  0.00  0.00    +0.217 C 
ATOM      3  C   UNL     1      -4.505  -2.861  31.859  0.00  0.00    +0.110 C 
ATOM      4  N   UNL     1      -4.670  -1.790  31.194  0.00  0.00    -0.246 NA
ATOM      5  C   UNL     1      -3.624  -1.595  30.253  0.00  0.00    +0.080 C 
ATOM      6  C   UNL     1      -2.745  -2.645  30.360  0.00  0.00    +0.031 C 
ATOM      7  C   UNL     1      -1.615  -2.695  29.533  0.00  0.00    +0.000 C 
ATOM      8  C   UNL     1      -1.390  -1.689  28.615  0.00  0.00    -0.000 C 
ATOM      9  C   UNL     1      -2.283  -0.647  28.526  0.00  0.00    +0.002 C 
ATOM     10  C   UNL     1      -3.383  -0.591  29.325  0.00  0.00    +0.019 C 
ENDROOT
TORSDOF 0
