MODEL 1
REMARK VINA RESULT:    -9.509      0.000      0.000
REMARK INTER + INTRA:         -16.023
REMARK INTER:                 -15.068
REMARK INTRA:                  -0.955
REMARK UNBOUND:                -0.955
REMARK  Name = =
REMARK  11 active torsions:
REMARK  status: ('A' for Active; 'I' for Inactive)
REMARK    1  A    between atoms: S_1  and  N_2
REMARK    2  A    between atoms: S_1  and  N_27
REMARK    3  A    between atoms: S_1  and  C_39
REMARK    4  A    between atoms: S_1  and  C_42
REMARK    5  A    between atoms: C_4  and  C_7
REMARK    6  A    between atoms: C_6  and  C_22
REMARK    7  A    between atoms: N_27  and  C_30
REMARK    8  A    between atoms: C_32  and  O_38
REMARK    9  A    between atoms: C_33  and  C_35
REMARK   10  A    between atoms: C_39  and  O_41
REMARK   11  A    between atoms: C_42  and  O_44
REMARK                            x       y       z     vdW  Elec       q    Type
REMARK                         _______ _______ _______ _____ _____    ______ ____
ROOT
ATOM      1  S   UNL     1       1.751  -5.005  27.879  0.00  0.00    +0.055 S 
ENDROOT
BRANCH   1   2
ATOM      2  N   UNL     1       0.881  -5.014  29.030  0.00  0.00    -0.186 NA
ATOM      3  C   UNL     1      -0.436  -5.612  29.148  0.00  0.00    +0.117 C 
ATOM      4  C   UNL     1      -1.191  -4.660  30.045  0.00  0.00    +0.142 C 
ATOM      5  O   UNL     1      -0.225  -3.774  30.514  0.00  0.00    -0.336 OA
ATOM      6  C   UNL     1       1.004  -4.221  30.195  0.00  0.00    +0.230 C 
BRANCH   4   7
ATOM      7  C   UNL     1      -1.883  -5.218  31.194  0.00  0.00    +0.073 C 
ATOM      8  C   UNL     1      -3.178  -4.513  31.458  0.00  0.00    -0.020 C 
ATOM      9  C   UNL     1      -3.800  -4.625  32.713  0.00  0.00    -0.025 C 
ATOM     10  C   UNL     1      -4.972  -3.978  32.903  0.00  0.00    -0.005 C 
ATOM     11  C   UNL     1      -5.542  -3.223  31.885  0.00  0.00    -0.000 C 
ATOM     12  C   UNL     1      -4.913  -3.128  30.664  0.00  0.00    -0.000 C 
ATOM     13  C   UNL     1      -3.710  -3.782  30.445  0.00  0.00    -0.004 C 
ATOM     14  C   UNL     1      -3.310  -5.408  33.906  0.00  0.00    +0.031 C 
ATOM     15  C   UNL     1      -3.481  -6.844  33.544  0.00  0.00    +0.031 C 
ATOM     16  C   UNL     1      -2.912  -7.268  32.257  0.00  0.00    -0.025 C 
ATOM     17  C   UNL     1      -2.246  -6.646  31.223  0.00  0.00    -0.020 C 
ATOM     18  C   UNL     1      -1.878  -7.371  30.129  0.00  0.00    -0.004 C 
ATOM     19  C   UNL     1      -2.140  -8.741  29.991  0.00  0.00    -0.000 C 
ATOM     20  C   UNL     1      -2.801  -9.366  31.017  0.00  0.00    -0.000 C 
ATOM     21  C   UNL     1      -3.170  -8.626  32.119  0.00  0.00    -0.005 C 
ENDBRANCH   4   7
BRANCH   6  22
ATOM     22  C   UNL     1       1.651  -5.005  31.351  0.00  0.00    +0.132 C 
ATOM     23  N   UNL     1       2.335  -4.269  32.250  0.00  0.00    -0.191 NA
ATOM     24  S   UNL     1       2.939  -5.393  33.403  0.00  0.00    +0.116 S 
ATOM     25  N   UNL     1       2.271  -6.821  32.666  0.00  0.00    -0.189 NA
ATOM     26  C   UNL     1       1.576  -6.301  31.495  0.00  0.00    +0.128 C 
ENDBRANCH   6  22
ENDBRANCH   1   2
BRANCH   1  27
ATOM     27  N   UNL     1       3.382  -4.581  28.258  0.00  0.00    -0.278 N 
ATOM     28  H   UNL     1       3.706  -4.762  29.169  0.00  0.00    +0.161 HD
BRANCH  27  31
ATOM     29 CL   UNL     1       3.269  -1.539  28.041  0.00  0.00    -0.081 Cl
ATOM     30  C   UNL     1       4.309  -2.639  27.171  0.00  0.00    +0.072 C 
ATOM     31  C   UNL     1       4.268  -3.998  27.347  0.00  0.00    +0.068 C 
ATOM     32  C   UNL     1       5.121  -4.834  26.626  0.00  0.00    +0.053 C 
ATOM     33  C   UNL     1       6.012  -4.286  25.726  0.00  0.00    +0.139 C 
ATOM     34  C   UNL     1       6.067  -2.929  25.536  0.00  0.00    +0.088 C 
ATOM     35  C   UNL     1       5.215  -2.129  26.261  0.00  0.00    +0.020 C 
BRANCH  34  36
ATOM     36  C   UNL     1       7.018  -2.331  24.587  0.00  0.00    +0.246 C 
ATOM     37  O   UNL     1       7.758  -1.400  24.962  0.00  0.00    -0.270 OA
ATOM     38  N   UNL     1       7.080  -2.818  23.265  0.00  0.00    -0.325 N 
ATOM     39  H   UNL     1       6.490  -3.554  22.983  0.00  0.00    +0.145 HD
ATOM     40  H   UNL     1       7.714  -2.422  22.624  0.00  0.00    +0.145 HD
ENDBRANCH  34  36
BRANCH  33  41
ATOM     41  O   UNL     1       6.878  -5.091  24.985  0.00  0.00    -0.505 OA
ATOM     42  H   UNL     1       7.443  -5.698  25.423  0.00  0.00    +0.292 HD
ENDBRANCH  33  41
ENDBRANCH  27  31
ENDBRANCH   1  27
BRANCH   1  43
ATOM     43  C   UNL     1       1.917  -6.546  26.954  0.00  0.00    +0.219 C 
ATOM     44  S   UNL     1       2.904  -7.721  27.422  0.00  0.00    -0.003 S 
BRANCH  43  45
ATOM     45  O   UNL     1       1.173  -6.728  25.798  0.00  0.00    -0.495 OA
ATOM     46  H   UNL     1       0.350  -7.173  25.836  0.00  0.00    +0.293 HD
ENDBRANCH  43  45
ENDBRANCH   1  43
BRANCH   1  47
ATOM     47  C   UNL     1       1.215  -3.872  26.655  0.00  0.00    +0.388 C 
ATOM     48  O   UNL     1       1.573  -4.078  25.465  0.00  0.00    -0.236 OA
BRANCH  47  49
ATOM     49  O   UNL     1       0.436  -2.774  26.877  0.00  0.00    -0.436 OA
ATOM     50  C   UNL     1      -0.980  -2.786  26.895  0.00  0.00    +0.257 C 
ENDBRANCH  47  49
ENDBRANCH   1  47
TORSDOF 11
ENDMDL
