MODEL 1
REMARK VINA RESULT:   -10.518      0.000      0.000
REMARK INTER + INTRA:         -12.993
REMARK INTER:                 -13.285
REMARK INTRA:                   0.292
REMARK UNBOUND:                 0.292
REMARK  Name = =
REMARK  6 active torsions:
REMARK  status: ('A' for Active; 'I' for Inactive)
REMARK    1  A    between atoms: C_1  and  N_21
REMARK    2  A    between atoms: C_7  and  O_41
REMARK    3  A    between atoms: C_15  and  O_40
REMARK    4  A    between atoms: C_18  and  O_39
REMARK    5  A    between atoms: C_25  and  C_34
REMARK    6  A    between atoms: C_26  and  N_27
REMARK                            x       y       z     vdW  Elec       q    Type
REMARK                         _______ _______ _______ _____ _____    ______ ____
ROOT
ATOM      1  C   UNL     1      -2.141  -6.622  30.914  0.00  0.00    +0.084 C 
ATOM      2  C   UNL     1      -3.068  -7.832  30.907  0.00  0.00    +0.021 C 
ATOM      3  C   UNL     1      -3.473  -8.135  32.311  0.00  0.00    +0.006 C 
ATOM      4  C   UNL     1      -3.886  -6.958  33.110  0.00  0.00    +0.026 C 
ATOM      5  C   UNL     1      -3.786  -5.667  32.365  0.00  0.00    -0.022 C 
ATOM      6  C   UNL     1      -2.941  -5.464  31.292  0.00  0.00    +0.022 C 
ATOM      7  C   UNL     1      -2.927  -4.218  30.688  0.00  0.00    +0.134 C 
ATOM      8  C   UNL     1      -3.730  -3.173  31.123  0.00  0.00    +0.075 C 
ATOM      9  C   UNL     1      -4.561  -3.412  32.196  0.00  0.00    +0.045 C 
ATOM     10  C   UNL     1      -4.599  -4.659  32.829  0.00  0.00    -0.001 C 
ATOM     11  C   UNL     1      -5.414  -2.334  32.672  0.00  0.00    +0.199 C 
ATOM     12  O   UNL     1      -6.182  -2.510  33.642  0.00  0.00    -0.286 OA
ATOM     13  C   UNL     1      -5.376  -1.024  32.009  0.00  0.00    +0.079 C 
ATOM     14  C   UNL     1      -4.547  -0.787  30.942  0.00  0.00    +0.079 C 
ATOM     15  C   UNL     1      -4.508   0.439  30.319  0.00  0.00    +0.137 C 
ATOM     16  C   UNL     1      -5.320   1.452  30.779  0.00  0.00    +0.040 C 
ATOM     17  C   UNL     1      -6.159   1.234  31.850  0.00  0.00    +0.040 C 
ATOM     18  C   UNL     1      -6.184   0.010  32.455  0.00  0.00    +0.137 C 
ATOM     19  C   UNL     1      -3.690  -1.863  30.458  0.00  0.00    +0.202 C 
ATOM     20  O   UNL     1      -2.959  -1.608  29.492  0.00  0.00    -0.286 OA
ENDROOT
BRANCH   1  21
ATOM     21  N   UNL     1      -1.223  -6.578  29.873  0.00  0.00    -0.255 NA
ATOM     22  C   UNL     1      -1.609  -6.746  28.535  0.00  0.00    +0.074 C 
ATOM     23  C   UNL     1      -1.062  -8.034  27.900  0.00  0.00    +0.018 C 
ATOM     24  C   UNL     1       0.419  -7.825  27.888  0.00  0.00    +0.010 C 
ATOM     25  C   UNL     1       0.937  -7.430  29.043  0.00  0.00    +0.091 C 
ATOM     26  C   UNL     1      -0.002  -7.274  30.174  0.00  0.00    +0.146 C 
BRANCH  26  27
ATOM     27  N   UNL     1       0.653  -6.743  31.358  0.00  0.00    -0.242 N 
ATOM     28  C   UNL     1       1.326  -5.570  31.358  0.00  0.00    +0.069 C 
ATOM     29  C   UNL     1       1.940  -5.102  32.515  0.00  0.00    +0.016 C 
ATOM     30  C   UNL     1       1.884  -5.808  33.691  0.00  0.00    +0.006 C 
ATOM     31  C   UNL     1       1.196  -7.001  33.684  0.00  0.00    +0.058 C 
ATOM     32  C   UNL     1       0.614  -7.413  32.523  0.00  0.00    +0.254 C 
ATOM     33  O   UNL     1      -0.019  -8.522  32.534  0.00  0.00    -0.270 OA
ENDBRANCH  26  27
BRANCH  25  34
ATOM     34  C   UNL     1       2.401  -7.180  29.182  0.00  0.00    +0.238 C 
ATOM     35  O   UNL     1       2.755  -5.915  28.750  0.00  0.00    -0.328 OA
ATOM     36  C   UNL     1       3.209  -6.049  27.441  0.00  0.00    +0.177 C 
ATOM     37  C   UNL     1       3.493  -7.519  27.266  0.00  0.00    +0.177 C 
ATOM     38  O   UNL     1       3.112  -8.095  28.455  0.00  0.00    -0.328 OA
ENDBRANCH  25  34
ENDBRANCH   1  21
BRANCH  18  39
ATOM     39  O   UNL     1      -7.017  -0.283  33.555  0.00  0.00    -0.505 OA
ATOM     40  H   UNL     1      -7.618  -1.000  33.510  0.00  0.00    +0.292 HD
ENDBRANCH  18  39
BRANCH  15  41
ATOM     41  O   UNL     1      -3.647   0.648  29.224  0.00  0.00    -0.505 OA
ATOM     42  H   UNL     1      -3.363  -0.079  28.706  0.00  0.00    +0.292 HD
ENDBRANCH  15  41
BRANCH   7  43
ATOM     43  O   UNL     1      -2.094  -4.059  29.653  0.00  0.00    -0.506 OA
ATOM     44  H   UNL     1      -1.375  -3.462  29.718  0.00  0.00    +0.292 HD
ENDBRANCH   7  43
TORSDOF 6
ENDMDL
