MODEL 1
REMARK VINA RESULT:    -7.994      0.000      0.000
REMARK INTER + INTRA:         -11.330
REMARK INTER:                 -11.733
REMARK INTRA:                   0.403
REMARK UNBOUND:                 0.403
REMARK  Name = =
REMARK  8 active torsions:
REMARK  status: ('A' for Active; 'I' for Inactive)
REMARK    1  A    between atoms: C_1  and  C_9
REMARK    2  A    between atoms: C_2  and  O_19
REMARK    3  A    between atoms: C_5  and  O_15
REMARK    4  A    between atoms: N_7  and  C_14
REMARK    5  A    between atoms: O_15  and  N_16
REMARK    6  A    between atoms: N_16  and  N_17
REMARK    7  A    between atoms: O_19  and  N_20
REMARK    8  A    between atoms: N_20  and  C_21
REMARK                            x       y       z     vdW  Elec       q    Type
REMARK                         _______ _______ _______ _____ _____    ______ ____
ROOT
ATOM      1  C   UNL     1      52.523 155.499  27.517  0.00  0.00    +0.034 C 
ATOM      2  C   UNL     1      52.051 156.260  28.573  0.00  0.00    +0.170 C 
ATOM      3  C   UNL     1      51.472 155.694  29.694  0.00  0.00    +0.043 C 
ATOM      4  C   UNL     1      51.353 154.324  29.786  0.00  0.00    +0.043 C 
ATOM      5  C   UNL     1      51.810 153.551  28.760  0.00  0.00    +0.174 C 
ATOM      6  C   UNL     1      52.386 154.133  27.643  0.00  0.00    +0.040 C 
ENDROOT
BRANCH   1   9
ATOM      7  N   UNL     1      54.078 155.540  25.486  0.00  0.00    -0.256 NA
ATOM      8  C   UNL     1      52.694 155.708  24.946  0.00  0.00    +0.094 C 
ATOM      9  C   UNL     1      53.140 156.095  26.341  0.00  0.00    +0.100 C 
BRANCH   7  14
ATOM     10  N   UNL     1      53.523 153.533  24.513  0.00  0.00    -0.286 NA
ATOM     11  C   UNL     1      53.970 153.293  23.187  0.00  0.00    +0.070 C 
ATOM     12  C   UNL     1      55.219 154.105  22.964  0.00  0.00    +0.020 C 
ATOM     13  C   UNL     1      55.799 154.165  24.350  0.00  0.00    +0.034 C 
ATOM     14  C   UNL     1      54.584 154.271  25.233  0.00  0.00    +0.115 C 
ATOM     15  H   UNL     1      52.668 154.088  24.493  0.00  0.00    +0.124 HD
ENDBRANCH   7  14
ENDBRANCH   1   9
BRANCH   5  16
ATOM     16  O   UNL     1      51.692 152.164  28.845  0.00  0.00    -0.362 OA
BRANCH  16  17
ATOM     17  N   UNL     1      51.588 151.391  27.719  0.00  0.00    -0.137 N 
ATOM     18  H   UNL     1      50.816 150.788  27.633  0.00  0.00    +0.231 HD
BRANCH  17  19
ATOM     19  N   UNL     1      52.517 151.422  26.704  0.00  0.00    -0.139 NA
ATOM     20  C   UNL     1      52.794 150.438  25.932  0.00  0.00    +0.145 C 
ENDBRANCH  17  19
ENDBRANCH  16  17
ENDBRANCH   5  16
BRANCH   2  21
ATOM     21  O   UNL     1      52.147 157.636  28.533  0.00  0.00    -0.379 OA
BRANCH  21  22
ATOM     22  N   UNL     1      52.410 158.506  29.511  0.00  0.00    -0.220 N 
ATOM     23  H   UNL     1      53.343 158.617  29.804  0.00  0.00    +0.207 HD
BRANCH  22  24
ATOM     24  C   UNL     1      51.415 159.270  30.140  0.00  0.00    +0.092 C 
ATOM     25  C   UNL     1      50.131 158.818  30.280  0.00  0.00    +0.041 C 
ATOM     26  C   UNL     1      49.157 159.576  30.917  0.00  0.00    +0.100 C 
ATOM     27  N   UNL     1      49.510 160.781  31.397  0.00  0.00    -0.242 NA
ATOM     28  C   UNL     1      50.740 161.278  31.292  0.00  0.00    +0.100 C 
ATOM     29  C   UNL     1      51.710 160.530  30.664  0.00  0.00    +0.041 C 
ENDBRANCH  22  24
ENDBRANCH  21  22
ENDBRANCH   2  21
TORSDOF 8
ENDMDL
