MODEL 1
REMARK VINA RESULT:    -6.633      0.000      0.000
REMARK INTER + INTRA:          -9.091
REMARK INTER:                  -8.185
REMARK INTRA:                  -0.906
REMARK UNBOUND:                -0.906
REMARK  Name = =
REMARK  4 active torsions:
REMARK  status: ('A' for Active; 'I' for Inactive)
REMARK    1  A    between atoms: C_1  and  N_8
REMARK    2  A    between atoms: C_1  and  C_21
REMARK    3  A    between atoms: N_11  and  C_14
REMARK    4  A    between atoms: C_21  and  N_23
REMARK                            x       y       z     vdW  Elec       q    Type
REMARK                         _______ _______ _______ _____ _____    ______ ____
ROOT
ATOM      1  C   UNL     1      60.324 161.146  39.471  0.00  0.00    +0.216 C 
ATOM      2  O   UNL     1      60.371 161.704  40.769  0.00  0.00    -0.436 OA
ATOM      3  C   UNL     1      61.233 161.153  41.696  0.00  0.00    +0.318 C 
ATOM      4  O   UNL     1      60.849 160.874  42.882  0.00  0.00    -0.250 OA
ATOM      5  C   UNL     1      62.615 160.915  41.220  0.00  0.00    +0.110 C 
ATOM      6  C   UNL     1      62.621 160.207  39.904  0.00  0.00    +0.017 C 
ATOM      7  C   UNL     1      61.591 160.661  38.933  0.00  0.00    +0.063 C 
ENDROOT
BRANCH   1   8
ATOM      8  N   UNL     1      59.884 162.282  38.632  0.00  0.00    -0.236 NA
ATOM      9  C   UNL     1      60.501 162.146  37.336  0.00  0.00    +0.097 C 
ATOM     10  C   UNL     1      60.114 163.272  36.420  0.00  0.00    +0.108 C 
ATOM     11  N   UNL     1      60.372 164.567  37.022  0.00  0.00    -0.305 N 
ATOM     12  C   UNL     1      60.757 164.589  38.393  0.00  0.00    +0.108 C 
ATOM     13  C   UNL     1      60.097 163.540  39.255  0.00  0.00    +0.097 C 
BRANCH  11  14
ATOM     14  C   UNL     1      60.215 165.720  36.193  0.00  0.00    +0.048 C 
ATOM     15  C   UNL     1      59.739 165.574  34.887  0.00  0.00    +0.017 C 
ATOM     16  C   UNL     1      59.581 166.662  34.064  0.00  0.00    +0.031 C 
ATOM     17  C   UNL     1      59.902 167.903  34.558  0.00  0.00    +0.140 C 
ATOM     18  C   UNL     1      60.374 168.116  35.836  0.00  0.00    +0.031 C 
ATOM     19  C   UNL     1      60.522 166.984  36.638  0.00  0.00    +0.017 C 
ATOM     20  F   UNL     1      59.744 168.978  33.738  0.00  0.00    -0.204 F 
ENDBRANCH  11  14
ENDBRANCH   1   8
BRANCH   1  21
ATOM     21  C   UNL     1      59.227 160.160  39.487  0.00  0.00    +0.076 C 
ATOM     22  C   UNL     1      59.147 159.247  38.560  0.00  0.00    +0.016 C 
BRANCH  21  23
ATOM     23  N   UNL     1      58.230 160.163  40.514  0.00  0.00    -0.307 N 
ATOM     24  C   UNL     1      57.217 161.176  40.698  0.00  0.00    +0.091 C 
ATOM     25  C   UNL     1      56.279 160.578  41.730  0.00  0.00    +0.023 C 
ATOM     26  C   UNL     1      57.232 159.772  42.586  0.00  0.00    +0.023 C 
ATOM     27  C   UNL     1      58.119 159.128  41.515  0.00  0.00    +0.091 C 
ENDBRANCH  21  23
ENDBRANCH   1  21
TORSDOF 4
ENDMDL
