MODEL 1
REMARK VINA RESULT:    -7.454      0.000      0.000
REMARK INTER + INTRA:         -10.951
REMARK INTER:                 -11.158
REMARK INTRA:                   0.207
REMARK UNBOUND:                 0.207
REMARK  Name = =
REMARK  9 active torsions:
REMARK  status: ('A' for Active; 'I' for Inactive)
REMARK    1  A    between atoms: C_1  and  C_6
REMARK    2  A    between atoms: C_1  and  C_26
REMARK    3  A    between atoms: C_6  and  C_12
REMARK    4  A    between atoms: C_12  and  C_13
REMARK    5  A    between atoms: C_16  and  C_19
REMARK    6  A    between atoms: C_26  and  N_31
REMARK    7  A    between atoms: N_31  and  S_32
REMARK    8  A    between atoms: S_32  and  N_35
REMARK    9  A    between atoms: C_36  and  O_38
REMARK                            x       y       z     vdW  Elec       q    Type
REMARK                         _______ _______ _______ _____ _____    ______ ____
ROOT
ATOM      1  C   UNL     1      59.794 162.743  40.777  0.00  0.00    +0.145 C 
ATOM      2  O   UNL     1      58.727 163.317  40.011  0.00  0.00    -0.353 OA
ATOM      3  C   UNL     1      58.383 164.520  40.436  0.00  0.00    +0.142 C 
ATOM      4  C   UNL     1      59.191 164.923  41.628  0.00  0.00    +0.035 C 
ATOM      5  C   UNL     1      59.966 163.646  41.893  0.00  0.00    +0.035 C 
ENDROOT
BRANCH   1   6
ATOM      6  C   UNL     1      59.304 161.346  40.932  0.00  0.00    +0.035 C 
ATOM      7  C   UNL     1      60.380 160.310  41.239  0.00  0.00    +0.020 C 
ATOM      8  C   UNL     1      59.917 158.885  41.030  0.00  0.00    +0.069 C 
ATOM      9  N   UNL     1      59.589 158.733  39.646  0.00  0.00    -0.297 NA
ATOM     10  C   UNL     1      58.442 159.534  39.368  0.00  0.00    +0.069 C 
ATOM     11  C   UNL     1      58.536 160.960  39.668  0.00  0.00    +0.020 C 
ATOM     12  H   UNL     1      59.382 157.754  39.445  0.00  0.00    +0.123 HD
BRANCH   6  13
ATOM     13  C   UNL     1      58.344 161.088  42.052  0.00  0.00    +0.029 C 
BRANCH  13  14
ATOM     14  C   UNL     1      56.915 161.275  41.977  0.00  0.00    -0.022 C 
ATOM     15  C   UNL     1      56.027 160.188  41.856  0.00  0.00    -0.004 C 
ATOM     16  C   UNL     1      54.672 160.291  41.836  0.00  0.00    -0.000 C 
ATOM     17  C   UNL     1      54.095 161.531  41.941  0.00  0.00    -0.000 C 
ATOM     18  C   UNL     1      54.883 162.625  42.061  0.00  0.00    -0.000 C 
ATOM     19  C   UNL     1      56.276 162.480  42.077  0.00  0.00    -0.004 C 
BRANCH  17  20
ATOM     20  C   UNL     1      52.609 161.657  41.941  0.00  0.00    -0.000 C 
ATOM     21  C   UNL     1      51.978 162.839  41.636  0.00  0.00    -0.000 C 
ATOM     22  C   UNL     1      50.595 162.915  41.648  0.00  0.00    +0.000 C 
ATOM     23  C   UNL     1      49.856 161.796  41.972  0.00  0.00    +0.000 C 
ATOM     24  C   UNL     1      50.475 160.603  42.282  0.00  0.00    +0.000 C 
ATOM     25  C   UNL     1      51.844 160.560  42.260  0.00  0.00    -0.000 C 
ENDBRANCH  17  20
ENDBRANCH  13  14
ENDBRANCH   6  13
ENDBRANCH   1   6
BRANCH   1  27
ATOM     26  O   UNL     1      61.146 161.972  38.964  0.00  0.00    -0.458 OA
ATOM     27  C   UNL     1      61.061 162.890  39.889  0.00  0.00    +0.239 C 
ATOM     28  C   UNL     1      62.303 163.086  40.726  0.00  0.00    +0.033 C 
ATOM     29  C   UNL     1      63.558 162.438  40.296  0.00  0.00    +0.004 C 
ATOM     30  C   UNL     1      63.521 161.501  39.156  0.00  0.00    +0.040 C 
ATOM     31  C   UNL     1      62.216 161.387  38.461  0.00  0.00    +0.174 C 
BRANCH  27  32
ATOM     32  N   UNL     1      60.767 164.165  39.203  0.00  0.00    -0.129 NA
ATOM     33  H   UNL     1      61.571 164.773  39.361  0.00  0.00    +0.154 HD
BRANCH  32  34
ATOM     34  S   UNL     1      60.466 164.192  37.586  0.00  0.00    +0.117 S 
ATOM     35  O   UNL     1      59.922 165.437  36.964  0.00  0.00    -0.138 OA
ATOM     36  O   UNL     1      61.836 164.039  36.905  0.00  0.00    -0.138 OA
BRANCH  34  37
ATOM     37  N   UNL     1      59.581 162.853  36.952  0.00  0.00    -0.141 N 
ATOM     38  C   UNL     1      59.184 162.746  35.595  0.00  0.00    +0.418 C 
ATOM     39  O   UNL     1      59.487 163.668  34.797  0.00  0.00    -0.225 OA
ATOM     40  H   UNL     1      59.338 162.124  37.566  0.00  0.00    +0.181 HD
BRANCH  38  41
ATOM     41  O   UNL     1      58.467 161.661  35.087  0.00  0.00    -0.465 OA
ATOM     42  H   UNL     1      58.419 161.522  34.162  0.00  0.00    +0.297 HD
ENDBRANCH  38  41
ENDBRANCH  34  37
ENDBRANCH  32  34
ENDBRANCH  27  32
ENDBRANCH   1  27
TORSDOF 9
ENDMDL
