REMARK  Name = =
REMARK  4 active torsions:
REMARK  status: ('A' for Active; 'I' for Inactive)
REMARK    1  A    between atoms: C_1  and  N_8
REMARK    2  A    between atoms: C_1  and  C_21
REMARK    3  A    between atoms: N_11  and  C_14
REMARK    4  A    between atoms: C_21  and  N_23
REMARK                            x       y       z     vdW  Elec       q    Type
REMARK                         _______ _______ _______ _____ _____    ______ ____
ROOT
ATOM      1  C   UNL     1      51.182 156.177  29.392  0.00  0.00    +0.216 C 
ATOM      2  O   UNL     1      51.636 155.404  30.485  0.00  0.00    -0.436 OA
ATOM      3  C   UNL     1      50.707 154.914  31.381  0.00  0.00    +0.318 C 
ATOM      4  O   UNL     1      50.871 155.027  32.642  0.00  0.00    -0.250 OA
ATOM      5  C   UNL     1      49.525 154.255  30.778  0.00  0.00    +0.110 C 
ATOM      6  C   UNL     1      48.927 155.096  29.698  0.00  0.00    +0.017 C 
ATOM      7  C   UNL     1      49.904 155.780  28.810  0.00  0.00    +0.063 C 
ENDROOT
BRANCH   1   8
ATOM      8  N   UNL     1      52.229 155.962  28.370  0.00  0.00    -0.236 NA
ATOM      9  C   UNL     1      51.845 156.679  27.179  0.00  0.00    +0.097 C 
ATOM     10  C   UNL     1      52.854 156.504  26.080  0.00  0.00    +0.108 C 
ATOM     11  N   UNL     1      53.125 155.102  25.818  0.00  0.00    -0.305 N 
ATOM     12  C   UNL     1      52.569 154.147  26.717  0.00  0.00    +0.108 C 
ATOM     13  C   UNL     1      52.518 154.588  28.160  0.00  0.00    +0.097 C 
BRANCH  11  14
ATOM     14  C   UNL     1      53.931 154.790  24.681  0.00  0.00    +0.048 C 
ATOM     15  C   UNL     1      54.812 155.749  24.172  0.00  0.00    +0.017 C 
ATOM     16  C   UNL     1      55.597 155.481  23.078  0.00  0.00    +0.031 C 
ATOM     17  C   UNL     1      55.497 154.242  22.493  0.00  0.00    +0.140 C 
ATOM     18  C   UNL     1      54.650 153.252  22.946  0.00  0.00    +0.031 C 
ATOM     19  C   UNL     1      53.869 153.566  24.058  0.00  0.00    +0.017 C 
ATOM     20  F   UNL     1      56.277 153.982  21.409  0.00  0.00    -0.204 F 
ENDBRANCH  11  14
ENDBRANCH   1   8
BRANCH   1  21
ATOM     21  C   UNL     1      51.269 157.586  29.821  0.00  0.00    +0.076 C 
ATOM     22  C   UNL     1      50.227 158.188  30.323  0.00  0.00    +0.016 C 
BRANCH  21  23
ATOM     23  N   UNL     1      52.487 158.329  29.714  0.00  0.00    -0.307 N 
ATOM     24  C   UNL     1      53.762 157.795  29.295  0.00  0.00    +0.091 C 
ATOM     25  C   UNL     1      54.632 159.023  29.101  0.00  0.00    +0.023 C 
ATOM     26  C   UNL     1      54.098 159.954  30.169  0.00  0.00    +0.023 C 
ATOM     27  C   UNL     1      52.588 159.736  30.023  0.00  0.00    +0.091 C 
ENDBRANCH  21  23
ENDBRANCH   1  21
TORSDOF 4
