MODEL 1
REMARK VINA RESULT:   -10.896      0.000      0.000
REMARK INTER + INTRA:         -15.759
REMARK INTER:                 -14.399
REMARK INTRA:                  -1.360
REMARK UNBOUND:                -1.360
REMARK  Name = =
REMARK  7 active torsions:
REMARK  status: ('A' for Active; 'I' for Inactive)
REMARK    1  A    between atoms: C_1  and  N_24
REMARK    2  A    between atoms: C_7  and  O_23
REMARK    3  A    between atoms: C_15  and  O_22
REMARK    4  A    between atoms: C_18  and  O_21
REMARK    5  A    between atoms: N_24  and  C_25
REMARK    6  A    between atoms: N_24  and  C_32
REMARK    7  A    between atoms: C_35  and  C_38
REMARK                            x       y       z     vdW  Elec       q    Type
REMARK                         _______ _______ _______ _____ _____    ______ ____
ROOT
ATOM      1  C   UNL     1     -21.675 -39.929  23.803  0.00  0.00    +0.098 C 
ATOM      2  C   UNL     1     -22.972 -39.570  24.488  0.00  0.00    +0.025 C 
ATOM      3  C   UNL     1     -22.702 -39.002  25.852  0.00  0.00    +0.007 C 
ATOM      4  C   UNL     1     -22.211 -40.191  26.683  0.00  0.00    +0.026 C 
ATOM      5  C   UNL     1     -20.902 -40.599  26.064  0.00  0.00    -0.022 C 
ATOM      6  C   UNL     1     -20.653 -40.413  24.727  0.00  0.00    +0.026 C 
ATOM      7  C   UNL     1     -19.380 -40.751  24.262  0.00  0.00    +0.134 C 
ATOM      8  C   UNL     1     -18.389 -41.255  25.079  0.00  0.00    +0.075 C 
ATOM      9  C   UNL     1     -18.668 -41.435  26.414  0.00  0.00    +0.045 C 
ATOM     10  C   UNL     1     -19.935 -41.098  26.889  0.00  0.00    -0.001 C 
ATOM     11  C   UNL     1     -17.609 -41.969  27.268  0.00  0.00    +0.199 C 
ATOM     12  O   UNL     1     -17.892 -42.119  28.471  0.00  0.00    -0.286 OA
ATOM     13  C   UNL     1     -16.283 -42.314  26.760  0.00  0.00    +0.079 C 
ATOM     14  C   UNL     1     -16.003 -42.131  25.399  0.00  0.00    +0.079 C 
ATOM     15  C   UNL     1     -14.764 -42.440  24.850  0.00  0.00    +0.137 C 
ATOM     16  C   UNL     1     -13.784 -42.938  25.664  0.00  0.00    +0.040 C 
ATOM     17  C   UNL     1     -14.024 -43.132  27.007  0.00  0.00    +0.040 C 
ATOM     18  C   UNL     1     -15.284 -42.816  27.553  0.00  0.00    +0.137 C 
ATOM     19  C   UNL     1     -17.072 -41.596  24.563  0.00  0.00    +0.202 C 
ATOM     20  O   UNL     1     -16.785 -41.443  23.332  0.00  0.00    -0.286 OA
ENDROOT
BRANCH  18  21
ATOM     21  O   UNL     1     -15.435 -43.037  28.877  0.00  0.00    -0.505 OA
ATOM     22  H   UNL     1     -15.533 -43.912  29.198  0.00  0.00    +0.292 HD
ENDBRANCH  18  21
BRANCH  15  23
ATOM     23  O   UNL     1     -14.510 -42.250  23.506  0.00  0.00    -0.505 OA
ATOM     24  H   UNL     1     -15.185 -41.925  22.943  0.00  0.00    +0.292 HD
ENDBRANCH  15  23
BRANCH   7  25
ATOM     25  O   UNL     1     -19.005 -40.592  22.917  0.00  0.00    -0.506 OA
ATOM     26  H   UNL     1     -19.457 -41.064  22.245  0.00  0.00    +0.292 HD
ENDBRANCH   7  25
BRANCH   1  27
ATOM     27  N   UNL     1     -21.982 -40.876  22.726  0.00  0.00    -0.301 N 
BRANCH  27  28
ATOM     28  C   UNL     1     -22.041 -42.284  22.954  0.00  0.00    +0.131 C 
ATOM     29  C   UNL     1     -22.001 -43.048  21.617  0.00  0.00    +0.027 C 
ATOM     30  C   UNL     1     -22.511 -44.433  21.810  0.00  0.00    +0.003 C 
ATOM     31  C   UNL     1     -23.974 -44.526  22.146  0.00  0.00    +0.008 C 
ATOM     32  C   UNL     1     -24.390 -43.168  22.678  0.00  0.00    +0.066 C 
ATOM     33  C   UNL     1     -23.273 -42.775  23.620  0.00  0.00    +0.168 C 
ATOM     34  O   UNL     1     -23.471 -42.892  24.789  0.00  0.00    -0.294 OA
ENDBRANCH  27  28
BRANCH  27  35
ATOM     35  C   UNL     1     -22.299 -40.331  21.441  0.00  0.00    +0.048 C 
ATOM     36  C   UNL     1     -23.546 -40.137  20.922  0.00  0.00    +0.015 C 
ATOM     37  C   UNL     1     -23.752 -39.599  19.656  0.00  0.00    +0.006 C 
ATOM     38  C   UNL     1     -22.708 -39.229  18.850  0.00  0.00    +0.053 C 
ATOM     39  C   UNL     1     -21.442 -39.414  19.351  0.00  0.00    +0.006 C 
ATOM     40  C   UNL     1     -21.231 -39.946  20.605  0.00  0.00    +0.015 C 
BRANCH  38  41
ATOM     41  C   UNL     1     -22.908 -38.665  17.515  0.00  0.00    +0.243 C 
ATOM     42  O   UNL     1     -22.151 -37.754  17.119  0.00  0.00    -0.270 OA
ATOM     43  N   UNL     1     -23.936 -39.126  16.670  0.00  0.00    -0.325 N 
ATOM     44  H   UNL     1     -24.051 -38.731  15.775  0.00  0.00    +0.145 HD
ATOM     45  H   UNL     1     -24.538 -39.844  16.973  0.00  0.00    +0.145 HD
ENDBRANCH  38  41
ENDBRANCH  27  35
ENDBRANCH   1  27
TORSDOF 7
ENDMDL
