REMARK  Name = =
REMARK  0 active torsions:
REMARK  status: ('A' for Active; 'I' for Inactive)
REMARK                            x       y       z     vdW  Elec       q    Type
REMARK                         _______ _______ _______ _____ _____    ______ ____
ROOT
ATOM      1  N   UNL     1     -13.443 -42.475  27.547  0.00  0.00    -0.295 NA
ATOM      2  C   UNL     1     -12.498 -43.470  27.969  0.00  0.00    +0.086 C 
ATOM      3  C   UNL     1     -13.895 -43.836  27.495  0.00  0.00    +0.086 C 
ATOM      4  H   UNL     1     -13.280 -41.969  26.676  0.00  0.00    +0.123 HD
ENDROOT
TORSDOF 0
