REMARK  Name = =
REMARK  4 active torsions:
REMARK  status: ('A' for Active; 'I' for Inactive)
REMARK    1  A    between atoms: S_1  and  N_9
REMARK    2  A    between atoms: C_2  and  N_3
REMARK    3  A    between atoms: C_2  and  N_17
REMARK    4  A    between atoms: C_10  and  C_12
REMARK                            x       y       z     vdW  Elec       q    Type
REMARK                         _______ _______ _______ _____ _____    ______ ____
ROOT
ATOM      1  S   UNL     1     -11.689 -43.834  30.325  0.00  0.00    -0.095 S 
ATOM      2  C   UNL     1     -11.797 -43.980  28.717  0.00  0.00    +0.122 C 
ATOM      3  H   UNL     1     -11.797 -42.508  30.606  0.00  0.00    +0.115 HD
ENDROOT
BRANCH   2   4
ATOM      4  N   UNL     1     -12.926 -43.528  27.995  0.00  0.00    -0.292 N 
ATOM      5  C   UNL     1     -14.274 -44.015  28.290  0.00  0.00    +0.092 C 
ATOM      6  C   UNL     1     -15.205 -42.846  28.038  0.00  0.00    +0.022 C 
ATOM      7  C   UNL     1     -15.251 -42.637  26.542  0.00  0.00    +0.004 C 
ATOM      8  C   UNL     1     -13.878 -42.586  25.927  0.00  0.00    +0.022 C 
ATOM      9  C   UNL     1     -12.776 -42.575  26.948  0.00  0.00    +0.092 C 
ENDBRANCH   2   4
BRANCH   1  10
ATOM     10  N   UNL     1     -10.262 -44.416  31.171  0.00  0.00    -0.230 NA
ATOM     11  C   UNL     1      -9.303 -45.247  30.407  0.00  0.00    +0.111 C 
ATOM     12  C   UNL     1     -10.144 -45.894  31.383  0.00  0.00    +0.102 C 
BRANCH  11  13
ATOM     13  C   UNL     1      -7.878 -44.818  30.642  0.00  0.00    +0.132 C 
ATOM     14  O   UNL     1      -7.645 -43.541  30.164  0.00  0.00    -0.355 OA
ATOM     15  C   UNL     1      -7.544 -42.684  31.220  0.00  0.00    +0.142 C 
ATOM     16  C   UNL     1      -7.606 -43.438  32.508  0.00  0.00    +0.035 C 
ATOM     17  C   UNL     1      -7.446 -44.871  32.062  0.00  0.00    +0.034 C 
ENDBRANCH  11  13
ENDBRANCH   1  10
BRANCH   2  18
ATOM     18  N   UNL     1     -10.729 -44.579  28.002  0.00  0.00    -0.341 N 
ATOM     19  H   UNL     1      -9.933 -44.901  28.484  0.00  0.00    +0.144 HD
ATOM     20  H   UNL     1     -10.783 -44.673  27.024  0.00  0.00    +0.144 HD
ENDBRANCH   2  18
TORSDOF 4
