REMARK  Name = =
REMARK  6 active torsions:
REMARK  status: ('A' for Active; 'I' for Inactive)
REMARK    1  A    between atoms: S_1  and  C_2
REMARK    2  A    between atoms: S_1  and  N_15
REMARK    3  A    between atoms: C_2  and  N_3
REMARK    4  A    between atoms: C_2  and  N_9
REMARK    5  A    between atoms: C_10  and  C_12
REMARK    6  A    between atoms: C_16  and  C_18
REMARK                            x       y       z     vdW  Elec       q    Type
REMARK                         _______ _______ _______ _____ _____    ______ ____
ROOT
ATOM      1  C   UNL     1     -10.736 -43.698  30.184  0.00  0.00    +0.186 C 
ENDROOT
BRANCH   1   2
ATOM      2  N   UNL     1      -9.608 -43.266  30.897  0.00  0.00    -0.250 NA
ATOM      3  C   UNL     1      -8.536 -42.613  30.172  0.00  0.00    +0.074 C 
ATOM      4  C   UNL     1      -7.176 -43.147  30.625  0.00  0.00    +0.017 C 
ATOM      5  C   UNL     1      -7.111 -42.930  32.119  0.00  0.00    +0.003 C 
ATOM      6  C   UNL     1      -8.128 -43.860  32.751  0.00  0.00    +0.017 C 
ATOM      7  C   UNL     1      -9.535 -43.493  32.321  0.00  0.00    +0.074 C 
ENDBRANCH   1   2
BRANCH   1   8
ATOM      8  N   UNL     1     -11.774 -44.392  30.838  0.00  0.00    -0.277 N 
ATOM      9  C   UNL     1     -12.768 -43.744  31.612  0.00  0.00    +0.301 C 
ATOM     10  O   UNL     1     -12.775 -42.514  31.749  0.00  0.00    -0.265 OA
ATOM     11  H   UNL     1     -11.810 -45.372  30.753  0.00  0.00    +0.152 HD
BRANCH   9  12
ATOM     12  C   UNL     1     -13.807 -44.572  32.259  0.00  0.00    +0.296 C 
ATOM     13  O   UNL     1     -13.861 -45.809  32.044  0.00  0.00    -0.265 OA
ATOM     14  N   UNL     1     -14.727 -43.930  33.118  0.00  0.00    -0.322 N 
ATOM     15  H   UNL     1     -14.664 -42.959  33.270  0.00  0.00    +0.145 HD
ATOM     16  H   UNL     1     -15.431 -44.453  33.564  0.00  0.00    +0.145 HD
ENDBRANCH   9  12
ENDBRANCH   1   8
BRANCH   1  17
ATOM     17  S   UNL     1     -10.848 -43.429  28.564  0.00  0.00    -0.112 S 
ATOM     18  H   UNL     1      -9.754 -44.005  27.998  0.00  0.00    +0.111 HD
BRANCH  17  19
ATOM     19  N   UNL     1     -12.260 -44.004  27.643  0.00  0.00    -0.233 NA
ATOM     20  C   UNL     1     -13.332 -42.965  27.394  0.00  0.00    +0.111 C 
ATOM     21  C   UNL     1     -13.542 -44.089  28.246  0.00  0.00    +0.102 C 
BRANCH  20  22
ATOM     22  C   UNL     1     -13.646 -42.890  25.932  0.00  0.00    +0.132 C 
ATOM     23  O   UNL     1     -14.171 -44.038  25.400  0.00  0.00    -0.355 OA
ATOM     24  C   UNL     1     -14.546 -43.624  24.111  0.00  0.00    +0.142 C 
ATOM     25  C   UNL     1     -15.071 -42.229  24.236  0.00  0.00    +0.035 C 
ATOM     26  C   UNL     1     -14.798 -41.916  25.712  0.00  0.00    +0.034 C 
ENDBRANCH  20  22
ENDBRANCH  17  19
ENDBRANCH   1  17
TORSDOF 6
