REMARK  Name = =
REMARK  0 active torsions:
REMARK  status: ('A' for Active; 'I' for Inactive)
REMARK                            x       y       z     vdW  Elec       q    Type
REMARK                         _______ _______ _______ _____ _____    ______ ____
ROOT
ATOM      1  C   UNL     1      50.484 155.365  29.047  0.00  0.00    +0.026 C 
ATOM      2  C   UNL     1      51.955 154.979  29.162  0.00  0.00    +0.005 C 
ATOM      3  C   UNL     1      52.699 155.913  28.203  0.00  0.00    +0.005 C 
ATOM      4  C   UNL     1      52.761 157.261  28.890  0.00  0.00    +0.026 C 
ATOM      5  C   UNL     1      51.450 157.632  29.482  0.00  0.00    -0.026 C 
ATOM      6  C   UNL     1      50.382 156.758  29.561  0.00  0.00    -0.026 C 
ATOM      7  C   UNL     1      49.213 157.213  30.133  0.00  0.00    -0.005 C 
ATOM      8  C   UNL     1      49.073 158.502  30.625  0.00  0.00    -0.000 C 
ATOM      9  C   UNL     1      50.139 159.376  30.547  0.00  0.00    -0.000 C 
ATOM     10  C   UNL     1      51.306 158.913  29.973  0.00  0.00    -0.005 C 
ENDROOT
TORSDOF 0
