REMARK  Name = =
REMARK  1 active torsions:
REMARK  status: ('A' for Active; 'I' for Inactive)
REMARK    1  A    between atoms: C_1  and  N_11
REMARK                            x       y       z     vdW  Elec       q    Type
REMARK                         _______ _______ _______ _____ _____    ______ ____
ROOT
ATOM      1  C   UNL     1      52.117 156.205  28.876  0.00  0.00    +0.080 C 
ATOM      2  C   UNL     1      52.680 157.126  27.834  0.00  0.00    +0.021 C 
ATOM      3  C   UNL     1      53.185 158.388  28.490  0.00  0.00    +0.006 C 
ATOM      4  C   UNL     1      52.633 158.668  29.849  0.00  0.00    +0.026 C 
ATOM      5  C   UNL     1      51.216 158.154  29.958  0.00  0.00    -0.025 C 
ATOM      6  C   UNL     1      50.967 156.883  29.455  0.00  0.00    -0.012 C 
ATOM      7  C   UNL     1      49.698 156.363  29.538  0.00  0.00    -0.003 C 
ATOM      8  C   UNL     1      48.699 157.116  30.121  0.00  0.00    -0.000 C 
ATOM      9  C   UNL     1      48.964 158.383  30.619  0.00  0.00    -0.000 C 
ATOM     10  C   UNL     1      50.229 158.914  30.542  0.00  0.00    -0.005 C 
ENDROOT
BRANCH   1  11
ATOM     11  N   UNL     1      52.135 154.842  28.631  0.00  0.00    -0.270 NA
ATOM     12  C   UNL     1      53.195 154.567  27.653  0.00  0.00    +0.072 C 
ATOM     13  C   UNL     1      52.981 153.385  26.803  0.00  0.00    +0.017 C 
ATOM     14  C   UNL     1      52.374 152.284  27.603  0.00  0.00    +0.003 C 
ATOM     15  C   UNL     1      51.340 152.665  28.347  0.00  0.00    +0.017 C 
ATOM     16  C   UNL     1      51.003 154.129  28.222  0.00  0.00    +0.072 C 
ENDBRANCH   1  11
TORSDOF 1
