REMARK  Name = =
REMARK  1 active torsions:
REMARK  status: ('A' for Active; 'I' for Inactive)
REMARK    1  A    between atoms: C_1  and  C_19
REMARK                            x       y       z     vdW  Elec       q    Type
REMARK                         _______ _______ _______ _____ _____    ______ ____
ROOT
ATOM      1  C   UNL     1      58.146 160.209  39.498  0.00  0.00    +0.001 C 
ATOM      2  C   UNL     1      56.867 160.274  38.953  0.00  0.00    +0.000 C 
ATOM      3  C   UNL     1      55.762 159.819  39.647  0.00  0.00    +0.000 C 
ATOM      4  C   UNL     1      55.893 159.285  40.904  0.00  0.00    +0.000 C 
ATOM      5  C   UNL     1      57.176 159.214  41.466  0.00  0.00    +0.000 C 
ATOM      6  C   UNL     1      58.271 159.672  40.762  0.00  0.00    +0.000 C 
ATOM      7  C   UNL     1      54.778 158.774  41.721  0.00  0.00    +0.000 C 
ATOM      8  C   UNL     1      53.436 158.867  41.091  0.00  0.00    +0.000 C 
ATOM      9  C   UNL     1      53.396 159.451  39.750  0.00  0.00    +0.000 C 
ATOM     10  C   UNL     1      54.432 159.895  39.059  0.00  0.00    +0.000 C 
ENDROOT
BRANCH   1  19
ATOM     11  S   UNL     1      60.898 164.123  38.019  0.00  0.00    -0.065 S 
ATOM     12  C   UNL     1      59.315 164.255  39.047  0.00  0.00    +0.134 C 
ATOM     13  N   UNL     1      59.073 163.078  39.116  0.00  0.00    -0.236 NA
ATOM     14  C   UNL     1      59.638 162.034  38.675  0.00  0.00    +0.088 C 
ATOM     15  C   UNL     1      60.825 162.302  37.930  0.00  0.00    +0.049 C 
ATOM     16  C   UNL     1      61.591 161.368  37.368  0.00  0.00    +0.008 C 
ATOM     17  C   UNL     1      61.259 160.038  37.483  0.00  0.00    +0.001 C 
ATOM     18  C   UNL     1      60.127 159.752  38.190  0.00  0.00    +0.002 C 
ATOM     19  C   UNL     1      59.303 160.679  38.789  0.00  0.00    +0.018 C 
ENDBRANCH   1  19
TORSDOF 1
