REMARK  Name = =
REMARK  6 active torsions:
REMARK  status: ('A' for Active; 'I' for Inactive)
REMARK    1  A    between atoms: C_1  and  C_22
REMARK    2  A    between atoms: C_2  and  O_45
REMARK    3  A    between atoms: C_6  and  O_44
REMARK    4  A    between atoms: C_12  and  O_43
REMARK    5  A    between atoms: N_21  and  C_25
REMARK    6  A    between atoms: C_24  and  C_42
REMARK                            x       y       z     vdW  Elec       q    Type
REMARK                         _______ _______ _______ _____ _____    ______ ____
ROOT
ATOM      1  C   UNL     1      57.196 163.523  33.650  0.00  0.00    +0.118 C 
ATOM      2  C   UNL     1      56.185 164.314  33.253  0.00  0.00    +0.118 C 
ATOM      3  C   UNL     1      55.066 163.766  32.396  0.00  0.00    +0.065 C 
ATOM      4  C   UNL     1      55.839 162.935  31.346  0.00  0.00    +0.022 C 
ATOM      5  C   UNL     1      56.189 161.647  32.151  0.00  0.00    +0.119 C 
ATOM      6  C   UNL     1      54.821 161.249  32.672  0.00  0.00    +0.117 C 
ATOM      7  C   UNL     1      53.804 161.171  31.811  0.00  0.00    +0.047 C 
ATOM      8  C   UNL     1      54.050 161.468  30.401  0.00  0.00    +0.033 C 
ATOM      9  C   UNL     1      52.855 161.745  29.567  0.00  0.00    +0.031 C 
ATOM     10  C   UNL     1      51.556 161.471  30.168  0.00  0.00    -0.016 C 
ATOM     11  C   UNL     1      51.346 161.010  31.450  0.00  0.00    +0.068 C 
ATOM     12  C   UNL     1      50.072 160.756  31.928  0.00  0.00    +0.136 C 
ATOM     13  C   UNL     1      48.985 160.968  31.108  0.00  0.00    +0.037 C 
ATOM     14  C   UNL     1      49.168 161.431  29.815  0.00  0.00    +0.003 C 
ATOM     15  C   UNL     1      50.444 161.671  29.376  0.00  0.00    -0.004 C 
ATOM     16  C   UNL     1      52.481 160.837  32.337  0.00  0.00    +0.197 C 
ATOM     17  O   UNL     1      52.380 160.421  33.512  0.00  0.00    -0.287 OA
ATOM     18  C   UNL     1      55.034 162.593  30.154  0.00  0.00    +0.006 C 
ATOM     19  C   UNL     1      57.083 162.118  33.240  0.00  0.00    +0.187 C 
ATOM     20  O   UNL     1      57.775 161.275  33.843  0.00  0.00    -0.291 OA
ENDROOT
BRANCH   1  22
ATOM     21  N   UNL     1      59.342 163.380  35.030  0.00  0.00    -0.280 N 
ATOM     22  C   UNL     1      58.241 164.081  34.453  0.00  0.00    +0.255 C 
ATOM     23  O   UNL     1      58.194 165.343  34.680  0.00  0.00    -0.270 OA
ATOM     24  H   UNL     1      59.461 162.408  34.929  0.00  0.00    +0.155 HD
BRANCH  21  26
ATOM     25  C   UNL     1      60.789 163.804  36.932  0.00  0.00    +0.015 C 
ATOM     26  C   UNL     1      60.254 164.190  35.761  0.00  0.00    +0.051 C 
ATOM     27  C   UNL     1      60.509 165.496  35.264  0.00  0.00    +0.013 C 
ATOM     28  C   UNL     1      61.301 166.376  35.982  0.00  0.00    +0.001 C 
ATOM     29  C   UNL     1      61.853 165.987  37.183  0.00  0.00    +0.000 C 
ATOM     30  C   UNL     1      61.598 164.716  37.648  0.00  0.00    +0.001 C 
ATOM     31  C   UNL     1      61.532 167.755  35.502  0.00  0.00    +0.000 C 
ATOM     32  C   UNL     1      61.064 168.042  34.122  0.00  0.00    +0.000 C 
ATOM     33  C   UNL     1      60.240 167.026  33.463  0.00  0.00    +0.000 C 
ATOM     34  C   UNL     1      59.967 165.845  33.963  0.00  0.00    +0.001 C 
BRANCH  25  43
ATOM     35  S   UNL     1      62.411 160.487  40.232  0.00  0.00    -0.065 S 
ATOM     36  C   UNL     1      63.256 162.142  39.848  0.00  0.00    +0.134 C 
ATOM     37  N   UNL     1      62.494 162.525  39.001  0.00  0.00    -0.236 NA
ATOM     38  C   UNL     1      61.430 161.988  38.500  0.00  0.00    +0.088 C 
ATOM     39  C   UNL     1      61.075 160.742  39.012  0.00  0.00    +0.049 C 
ATOM     40  C   UNL     1      60.004 160.000  38.618  0.00  0.00    +0.008 C 
ATOM     41  C   UNL     1      59.166 160.504  37.611  0.00  0.00    +0.001 C 
ATOM     42  C   UNL     1      59.495 161.732  37.088  0.00  0.00    +0.002 C 
ATOM     43  C   UNL     1      60.560 162.473  37.479  0.00  0.00    +0.019 C 
ENDBRANCH  25  43
ENDBRANCH  21  26
ENDBRANCH   1  22
BRANCH  12  44
ATOM     44  O   UNL     1      49.849 160.291  33.210  0.00  0.00    -0.505 OA
ATOM     45  H   UNL     1      50.572 160.139  33.786  0.00  0.00    +0.292 HD
ENDBRANCH  12  44
BRANCH   6  46
ATOM     46  O   UNL     1      54.672 160.982  34.012  0.00  0.00    -0.510 OA
ATOM     47  H   UNL     1      55.409 161.047  34.587  0.00  0.00    +0.292 HD
ENDBRANCH   6  46
BRANCH   2  48
ATOM     48  O   UNL     1      56.196 165.632  33.646  0.00  0.00    -0.510 OA
ATOM     49  H   UNL     1      56.896 165.957  34.177  0.00  0.00    +0.292 HD
ENDBRANCH   2  48
TORSDOF 6
