REMARK  Name = =
REMARK  8 active torsions:
REMARK  status: ('A' for Active; 'I' for Inactive)
REMARK    1  A    between atoms: N_1  and  C_7
REMARK    2  A    between atoms: C_2  and  O_17
REMARK    3  A    between atoms: O_17  and  P_18
REMARK    4  A    between atoms: P_18  and  O_20
REMARK    5  A    between atoms: P_18  and  O_21
REMARK    6  A    between atoms: O_21  and  P_22
REMARK    7  A    between atoms: P_22  and  O_24
REMARK    8  A    between atoms: P_22  and  O_25
REMARK                            x       y       z     vdW  Elec       q    Type
REMARK                         _______ _______ _______ _____ _____    ______ ____
ROOT
ATOM      1  N   UNL     1      52.165 156.392  28.013  0.00  0.00    -0.244 NA
ATOM      2  C   UNL     1      52.176 155.084  27.477  0.00  0.00    +0.192 C 
ATOM      3  C   UNL     1      51.999 155.048  25.976  0.00  0.00    +0.073 C 
ATOM      4  C   UNL     1      52.599 156.161  25.251  0.00  0.00    -0.025 C 
ATOM      5  C   UNL     1      53.015 157.241  25.878  0.00  0.00    -0.013 C 
ATOM      6  C   UNL     1      52.898 157.374  27.321  0.00  0.00    +0.101 C 
ENDROOT
BRANCH   1   7
ATOM      7  C   UNL     1      50.944 156.858  28.602  0.00  0.00    +0.082 C 
ATOM      8  C   UNL     1      50.145 155.792  29.264  0.00  0.00    +0.021 C 
ATOM      9  C   UNL     1      48.758 156.376  29.564  0.00  0.00    +0.006 C 
ATOM     10  C   UNL     1      48.878 157.454  30.624  0.00  0.00    +0.026 C 
ATOM     11  C   UNL     1      50.094 158.273  30.417  0.00  0.00    -0.025 C 
ATOM     12  C   UNL     1      51.064 158.025  29.483  0.00  0.00    -0.012 C 
ATOM     13  C   UNL     1      52.174 158.852  29.338  0.00  0.00    -0.003 C 
ATOM     14  C   UNL     1      52.335 159.953  30.132  0.00  0.00    -0.000 C 
ATOM     15  C   UNL     1      51.363 160.221  31.087  0.00  0.00    -0.000 C 
ATOM     16  C   UNL     1      50.256 159.384  31.219  0.00  0.00    -0.005 C 
ENDBRANCH   1   7
BRANCH   2  17
ATOM     17  O   UNL     1      53.339 154.448  27.876  0.00  0.00    -0.259 OA
BRANCH  17  18
ATOM     18  P   UNL     1      53.615 152.930  27.276  0.00  0.00    +0.485 P 
ATOM     19  O   UNL     1      52.555 152.010  27.901  0.00  0.00    -0.227 OA
BRANCH  18  20
ATOM     20  O   UNL     1      55.100 152.280  27.713  0.00  0.00    -0.302 OA
ATOM     21  H   UNL     1      55.215 152.354  28.673  0.00  0.00    +0.222 HD
ENDBRANCH  18  20
BRANCH  18  22
ATOM     22  O   UNL     1      53.385 152.816  25.606  0.00  0.00    -0.186 OA
BRANCH  22  23
ATOM     23  P   UNL     1      54.863 153.169  24.866  0.00  0.00    +0.481 P 
ATOM     24  O   UNL     1      55.192 154.655  25.020  0.00  0.00    -0.227 OA
BRANCH  23  25
ATOM     25  O   UNL     1      54.809 152.837  23.224  0.00  0.00    -0.302 OA
ATOM     26  H   UNL     1      54.078 153.329  22.819  0.00  0.00    +0.222 HD
ENDBRANCH  23  25
BRANCH  23  27
ATOM     27  O   UNL     1      56.133 152.324  25.612  0.00  0.00    -0.302 OA
ATOM     28  H   UNL     1      56.146 152.530  26.560  0.00  0.00    +0.222 HD
ENDBRANCH  23  27
ENDBRANCH  22  23
ENDBRANCH  18  22
ENDBRANCH  17  18
ENDBRANCH   2  17
TORSDOF 8
