REMARK  Name = =
REMARK  12 active torsions:
REMARK  status: ('A' for Active; 'I' for Inactive)
REMARK    1  A    between atoms: N_1  and  C_7
REMARK    2  A    between atoms: C_2  and  O_22
REMARK    3  A    between atoms: C_7  and  O_17
REMARK    4  A    between atoms: O_17  and  P_18
REMARK    5  A    between atoms: P_18  and  O_20
REMARK    6  A    between atoms: P_18  and  O_21
REMARK    7  A    between atoms: O_22  and  P_23
REMARK    8  A    between atoms: P_23  and  O_25
REMARK    9  A    between atoms: P_23  and  O_26
REMARK   10  A    between atoms: O_26  and  P_27
REMARK   11  A    between atoms: P_27  and  O_29
REMARK   12  A    between atoms: P_27  and  O_30
REMARK                            x       y       z     vdW  Elec       q    Type
REMARK                         _______ _______ _______ _____ _____    ______ ____
ROOT
ATOM      1  N   UNL     1      51.509 156.807  29.429  0.00  0.00    -0.223 NA
ATOM      2  C   UNL     1      50.703 157.292  30.510  0.00  0.00    +0.193 C 
ATOM      3  C   UNL     1      50.301 155.927  31.198  0.00  0.00    +0.073 C 
ATOM      4  C   UNL     1      49.450 155.274  30.147  0.00  0.00    -0.025 C 
ATOM      5  C   UNL     1      49.577 155.585  28.861  0.00  0.00    -0.013 C 
ATOM      6  C   UNL     1      50.545 156.583  28.338  0.00  0.00    +0.103 C 
ENDROOT
BRANCH   1   7
ATOM      7  C   UNL     1      52.614 157.549  29.012  0.00  0.00    +0.172 C 
ATOM      8  C   UNL     1      53.922 157.224  29.706  0.00  0.00    +0.048 C 
ATOM      9  C   UNL     1      55.047 158.084  29.178  0.00  0.00    +0.009 C 
ATOM     10  C   UNL     1      54.824 158.562  27.770  0.00  0.00    +0.026 C 
ATOM     11  C   UNL     1      54.051 157.548  27.005  0.00  0.00    -0.023 C 
ATOM     12  C   UNL     1      52.956 156.980  27.605  0.00  0.00    +0.013 C 
ATOM     13  C   UNL     1      52.241 156.005  26.995  0.00  0.00    -0.001 C 
ATOM     14  C   UNL     1      52.643 155.588  25.725  0.00  0.00    -0.000 C 
ATOM     15  C   UNL     1      53.737 156.163  25.130  0.00  0.00    -0.000 C 
ATOM     16  C   UNL     1      54.480 157.154  25.734  0.00  0.00    -0.004 C 
BRANCH   7  17
ATOM     17  O   UNL     1      52.376 158.848  28.766  0.00  0.00    -0.260 OA
BRANCH  17  18
ATOM     18  P   UNL     1      52.239 159.959  29.960  0.00  0.00    +0.474 P 
ATOM     19  O   UNL     1      53.405 160.954  29.989  0.00  0.00    -0.227 OA
BRANCH  18  20
ATOM     20  O   UNL     1      52.129 159.382  31.525  0.00  0.00    -0.303 OA
ATOM     21  H   UNL     1      52.897 158.822  31.718  0.00  0.00    +0.222 HD
ENDBRANCH  18  20
BRANCH  18  22
ATOM     22  O   UNL     1      50.878 160.929  29.672  0.00  0.00    -0.303 OA
ATOM     23  H   UNL     1      50.916 161.279  28.768  0.00  0.00    +0.222 HD
ENDBRANCH  18  22
ENDBRANCH  17  18
ENDBRANCH   7  17
ENDBRANCH   1   7
BRANCH   2  24
ATOM     24  O   UNL     1      49.477 157.728  30.052  0.00  0.00    -0.259 OA
BRANCH  24  25
ATOM     25  P   UNL     1      48.765 158.947  30.928  0.00  0.00    +0.485 P 
ATOM     26  O   UNL     1      48.483 160.136  30.045  0.00  0.00    -0.227 OA
BRANCH  25  27
ATOM     27  O   UNL     1      47.229 158.422  31.486  0.00  0.00    -0.302 OA
ATOM     28  H   UNL     1      46.700 158.112  30.734  0.00  0.00    +0.222 HD
ENDBRANCH  25  27
BRANCH  25  29
ATOM     29  O   UNL     1      49.685 159.486  32.237  0.00  0.00    -0.186 OA
BRANCH  29  30
ATOM     30  P   UNL     1      49.016 160.949  32.762  0.00  0.00    +0.481 P 
ATOM     31  O   UNL     1      49.633 161.398  34.071  0.00  0.00    -0.227 OA
BRANCH  30  32
ATOM     32  O   UNL     1      47.359 160.702  32.985  0.00  0.00    -0.302 OA
ATOM     33  H   UNL     1      47.222 159.994  33.634  0.00  0.00    +0.222 HD
ENDBRANCH  30  32
BRANCH  30  34
ATOM     34  O   UNL     1      49.217 162.180  31.633  0.00  0.00    -0.302 OA
ATOM     35  H   UNL     1      48.827 161.910  30.787  0.00  0.00    +0.222 HD
ENDBRANCH  30  34
ENDBRANCH  29  30
ENDBRANCH  25  29
ENDBRANCH  24  25
ENDBRANCH   2  24
TORSDOF 12
