REMARK  Name = =
REMARK  10 active torsions:
REMARK  status: ('A' for Active; 'I' for Inactive)
REMARK    1  A    between atoms: C_1  and  N_11
REMARK    2  A    between atoms: C_2  and  O_32
REMARK    3  A    between atoms: C_12  and  O_17
REMARK    4  A    between atoms: O_17  and  P_18
REMARK    5  A    between atoms: P_18  and  O_20
REMARK    6  A    between atoms: P_18  and  O_21
REMARK    7  A    between atoms: O_21  and  P_22
REMARK    8  A    between atoms: P_22  and  O_24
REMARK    9  A    between atoms: P_22  and  O_25
REMARK   10  A    between atoms: O_28  and  O_33
REMARK                            x       y       z     vdW  Elec       q    Type
REMARK                         _______ _______ _______ _____ _____    ______ ____
ROOT
ATOM      1  N   UNL     1      50.265 158.167  29.887  0.00  0.00    -0.219 NA
ATOM      2  C   UNL     1      51.538 157.653  29.639  0.00  0.00    +0.193 C 
ATOM      3  C   UNL     1      51.758 156.176  29.883  0.00  0.00    +0.073 C 
ATOM      4  C   UNL     1      50.516 155.396  29.885  0.00  0.00    -0.025 C 
ATOM      5  C   UNL     1      49.309 155.900  29.788  0.00  0.00    -0.013 C 
ATOM      6  C   UNL     1      49.146 157.369  29.664  0.00  0.00    +0.103 C 
ENDROOT
BRANCH   1   7
ATOM      7  C   UNL     1      50.095 159.320  30.697  0.00  0.00    +0.219 C 
ATOM      8  C   UNL     1      50.649 159.148  32.066  0.00  0.00    +0.157 C 
ATOM      9  C   UNL     1      50.611 160.294  32.992  0.00  0.00    +0.038 C 
ATOM     10  C   UNL     1      49.563 161.314  32.722  0.00  0.00    +0.029 C 
ATOM     11  C   UNL     1      48.497 160.813  31.780  0.00  0.00    -0.022 C 
ATOM     12  C   UNL     1      48.730 159.876  30.806  0.00  0.00    +0.018 C 
ATOM     13  C   UNL     1      47.698 159.493  29.972  0.00  0.00    -0.001 C 
ATOM     14  C   UNL     1      46.449 160.053  30.128  0.00  0.00    -0.000 C 
ATOM     15  C   UNL     1      46.206 160.985  31.094  0.00  0.00    -0.000 C 
ATOM     16  C   UNL     1      47.218 161.371  31.921  0.00  0.00    -0.004 C 
ATOM     17  O   UNL     1      50.820 160.401  30.121  0.00  0.00    -0.202 OA
BRANCH   8  18
ATOM     18  O   UNL     1      51.688 159.628  31.616  0.00  0.00    -0.380 OA
ATOM     19  H   UNL     1      52.025 159.061  30.905  0.00  0.00    +0.211 HD
ENDBRANCH   8  18
ENDBRANCH   1   7
BRANCH   2  20
ATOM     20  O   UNL     1      51.845 157.947  28.284  0.00  0.00    -0.259 OA
BRANCH  20  21
ATOM     21  P   UNL     1      52.896 156.931  27.540  0.00  0.00    +0.485 P 
ATOM     22  O   UNL     1      54.259 157.624  27.471  0.00  0.00    -0.227 OA
BRANCH  21  23
ATOM     23  O   UNL     1      52.484 156.626  25.904  0.00  0.00    -0.302 OA
ATOM     24  H   UNL     1      52.333 157.468  25.446  0.00  0.00    +0.222 HD
ENDBRANCH  21  23
BRANCH  21  25
ATOM     25  O   UNL     1      53.163 155.476  28.355  0.00  0.00    -0.186 OA
BRANCH  25  26
ATOM     26  P   UNL     1      52.934 154.146  27.334  0.00  0.00    +0.481 P 
ATOM     27  O   UNL     1      53.829 154.329  26.110  0.00  0.00    -0.227 OA
BRANCH  26  28
ATOM     28  O   UNL     1      51.321 154.019  26.840  0.00  0.00    -0.302 OA
ATOM     29  H   UNL     1      50.753 153.903  27.618  0.00  0.00    +0.222 HD
ENDBRANCH  26  28
BRANCH  26  30
ATOM     30  O   UNL     1      53.382 152.772  28.215  0.00  0.00    -0.302 OA
ATOM     31  H   UNL     1      54.308 152.854  28.494  0.00  0.00    +0.222 HD
ENDBRANCH  26  30
ENDBRANCH  25  26
ENDBRANCH  21  25
ENDBRANCH  20  21
ENDBRANCH   2  20
TORSDOF 9
REMARK  Name = =
REMARK  10 active torsions:
REMARK  status: ('A' for Active; 'I' for Inactive)
REMARK    1  A    between atoms: C_1  and  N_11
REMARK    2  A    between atoms: C_2  and  O_32
REMARK    3  A    between atoms: C_12  and  O_17
REMARK    4  A    between atoms: O_17  and  P_18
REMARK    5  A    between atoms: P_18  and  O_20
REMARK    6  A    between atoms: P_18  and  O_21
REMARK    7  A    between atoms: O_21  and  P_22
REMARK    8  A    between atoms: P_22  and  O_24
REMARK    9  A    between atoms: P_22  and  O_25
REMARK   10  A    between atoms: O_28  and  O_33
REMARK                            x       y       z     vdW  Elec       q    Type
REMARK                         _______ _______ _______ _____ _____    ______ ____
ROOT
ATOM      1  P   UNL     1      52.484 160.257  30.218  0.00  0.00    +0.000 P 
ENDROOT
TORSDOF 0
REMARK  Name = =
REMARK  10 active torsions:
REMARK  status: ('A' for Active; 'I' for Inactive)
REMARK    1  A    between atoms: C_1  and  N_11
REMARK    2  A    between atoms: C_2  and  O_32
REMARK    3  A    between atoms: C_12  and  O_17
REMARK    4  A    between atoms: O_17  and  P_18
REMARK    5  A    between atoms: P_18  and  O_20
REMARK    6  A    between atoms: P_18  and  O_21
REMARK    7  A    between atoms: O_21  and  P_22
REMARK    8  A    between atoms: P_22  and  O_24
REMARK    9  A    between atoms: P_22  and  O_25
REMARK   10  A    between atoms: O_28  and  O_33
REMARK                            x       y       z     vdW  Elec       q    Type
REMARK                         _______ _______ _______ _____ _____    ______ ____
ROOT
ATOM      1  O   UNL     1      53.875 160.408  29.634  0.00  0.00    -0.253 OA
ATOM      2  H   UNL     1      53.179 160.971  30.008  0.00  0.00    +0.253 HD
ENDROOT
BRANCH   1   3
ATOM      3  O   UNL     1      53.659 159.035  30.045  0.00  0.00    -0.253 OA
ATOM      4  H   UNL     1      54.355 158.472  29.671  0.00  0.00    +0.253 HD
ENDBRANCH   1   3
TORSDOF 1
REMARK  Name = =
REMARK  10 active torsions:
REMARK  status: ('A' for Active; 'I' for Inactive)
REMARK    1  A    between atoms: C_1  and  N_11
REMARK    2  A    between atoms: C_2  and  O_32
REMARK    3  A    between atoms: C_12  and  O_17
REMARK    4  A    between atoms: O_17  and  P_18
REMARK    5  A    between atoms: P_18  and  O_20
REMARK    6  A    between atoms: P_18  and  O_21
REMARK    7  A    between atoms: O_21  and  P_22
REMARK    8  A    between atoms: P_22  and  O_24
REMARK    9  A    between atoms: P_22  and  O_25
REMARK   10  A    between atoms: O_28  and  O_33
REMARK                            x       y       z     vdW  Elec       q    Type
REMARK                         _______ _______ _______ _____ _____    ______ ____
ROOT
ATOM      1  S   UNL     1      52.494 162.492  31.887  0.00  0.00    +0.122 S 
ATOM      2  O   UNL     1      51.452 163.140  31.268  0.00  0.00    -0.243 OA
ATOM      3  C   UNL     1      53.195 161.721  30.874  0.00  0.00    +0.120 C 
ENDROOT
TORSDOF 0
