REMARK  Name = =
REMARK  2 active torsions:
REMARK  status: ('A' for Active; 'I' for Inactive)
REMARK    1  A    between atoms: S_1  and  O_3
REMARK    2  A    between atoms: S_1  and  O_4
REMARK                            x       y       z     vdW  Elec       q    Type
REMARK                         _______ _______ _______ _____ _____    ______ ____
ROOT
ATOM      1  S   UNL     1      -6.428  -1.883  31.973  0.00  0.00    +0.137 S 
ATOM      2  O   UNL     1      -7.929  -2.029  31.902  0.00  0.00    -0.137 OA
ENDROOT
BRANCH   1   3
ATOM      3  O   UNL     1      -5.744  -3.136  31.047  0.00  0.00    -0.246 OA
ATOM      4  H   UNL     1      -4.777  -3.067  31.074  0.00  0.00    +0.245 HD
ENDBRANCH   1   3
BRANCH   1   5
ATOM      5  O   UNL     1      -5.868  -1.995  33.556  0.00  0.00    -0.246 OA
ATOM      6  H   UNL     1      -6.256  -1.282  34.087  0.00  0.00    +0.245 HD
ENDBRANCH   1   5
TORSDOF 2
