REMARK  Name = =
REMARK  2 active torsions:
REMARK  status: ('A' for Active; 'I' for Inactive)
REMARK    1  A    between atoms: S_1  and  O_4
REMARK    2  A    between atoms: S_1  and  O_5
REMARK                            x       y       z     vdW  Elec       q    Type
REMARK                         _______ _______ _______ _____ _____    ______ ____
ROOT
ATOM      1  S   UNL     1      -6.602  -1.988  31.884  0.00  0.00    -0.140 S 
ATOM      2  C   UNL     1      -8.260  -2.422  32.127  0.00  0.00    +0.149 C 
ATOM      3  O   UNL     1      -5.729  -3.033  31.027  0.00  0.00    -0.097 OA
ATOM      4  H   UNL     1      -5.479  -2.632  32.301  0.00  0.00    +0.188 HD
ENDROOT
BRANCH   1   5
ATOM      5  O   UNL     1      -6.922  -0.238  31.580  0.00  0.00    -0.291 OA
ATOM      6  H   UNL     1      -7.840  -0.123  31.288  0.00  0.00    +0.241 HD
ENDBRANCH   1   5
BRANCH   1   7
ATOM      7  O   UNL     1      -5.918  -1.772  33.548  0.00  0.00    -0.291 OA
ATOM      8  H   UNL     1      -6.471  -1.151  34.047  0.00  0.00    +0.241 HD
ENDBRANCH   1   7
TORSDOF 2
