REMARK  Name = =
REMARK  3 active torsions:
REMARK  status: ('A' for Active; 'I' for Inactive)
REMARK    1  A    between atoms: O_1  and  C_2
REMARK    2  A    between atoms: O_1  and  S_7
REMARK    3  A    between atoms: S_7  and  O_10
REMARK                            x       y       z     vdW  Elec       q    Type
REMARK                         _______ _______ _______ _____ _____    ______ ____
ROOT
ATOM      1  O   UNL     1      -2.555  -5.113  17.290  0.00  0.00    -0.346 OA
ENDROOT
BRANCH   1   2
ATOM      2  C   UNL     1      -1.891  -5.180  18.515  0.00  0.00    +0.245 C 
ATOM      3  N   UNL     1      -1.876  -6.053  19.437  0.00  0.00    -0.264 N 
ATOM      4  C   UNL     1      -1.016  -5.626  20.494  0.00  0.00    +0.167 C 
ATOM      5  N   UNL     1      -0.509  -4.347  20.059  0.00  0.00    -0.221 NA
ATOM      6  C   UNL     1      -1.002  -4.067  18.914  0.00  0.00    +0.156 C 
ATOM      7  H   UNL     1      -2.382  -6.898  19.425  0.00  0.00    +0.157 HD
ENDBRANCH   1   2
BRANCH   1   8
ATOM      8  S   UNL     1      -4.473  -5.249  17.830  0.00  0.00    +0.002 S 
ATOM      9  C   UNL     1      -4.717  -6.763  17.511  0.00  0.00    +0.191 C 
ATOM     10  O   UNL     1      -5.811  -4.906  18.453  0.00  0.00    -0.064 OA
BRANCH   8  11
ATOM     11  O   UNL     1      -4.311  -4.182  18.876  0.00  0.00    -0.265 OA
ATOM     12  H   UNL     1      -3.376  -3.930  18.938  0.00  0.00    +0.243 HD
ENDBRANCH   8  11
ENDBRANCH   1   8
TORSDOF 3
