REMARK  Name = =
REMARK  5 active torsions:
REMARK  status: ('A' for Active; 'I' for Inactive)
REMARK    1  A    between atoms: C_1  and  O_13
REMARK    2  A    between atoms: C_5  and  C_6
REMARK    3  A    between atoms: O_13  and  S_14
REMARK    4  A    between atoms: S_14  and  O_16
REMARK    5  A    between atoms: O_16  and  O_17
REMARK                            x       y       z     vdW  Elec       q    Type
REMARK                         _______ _______ _______ _____ _____    ______ ____
ROOT
ATOM      1  C   UNL     1      -2.079  -4.761  19.317  0.00  0.00    +0.252 C 
ATOM      2  N   UNL     1      -2.087  -5.980  18.954  0.00  0.00    -0.209 NA
ATOM      3  C   UNL     1      -0.752  -6.568  19.065  0.00  0.00    +0.253 C 
ATOM      4  N   UNL     1       0.046  -5.486  19.556  0.00  0.00    -0.241 NA
ATOM      5  C   UNL     1      -0.693  -4.440  19.707  0.00  0.00    +0.141 C 
ENDROOT
BRANCH   5   6
ATOM      6  C   UNL     1      -0.312  -3.091  20.188  0.00  0.00    +0.182 C 
ATOM      7  O   UNL     1      -0.877  -2.868  21.418  0.00  0.00    -0.337 OA
ATOM      8  C   UNL     1      -0.769  -1.567  21.866  0.00  0.00    +0.211 C 
ATOM      9  C   UNL     1       0.496  -0.923  21.420  0.00  0.00    +0.203 C 
ATOM     10  O   UNL     1       0.675   0.312  21.525  0.00  0.00    -0.289 OA
ATOM     11  C   UNL     1       1.544  -1.762  20.851  0.00  0.00    +0.038 C 
ATOM     12  C   UNL     1       1.137  -2.877  20.216  0.00  0.00    +0.012 C 
ENDBRANCH   5   6
BRANCH   1  13
ATOM     13  O   UNL     1      -3.169  -3.918  19.334  0.00  0.00    -0.402 OA
BRANCH  13  14
ATOM     14  S   UNL     1      -3.012  -2.874  17.601  0.00  0.00    +0.051 S 
ATOM     15  C   UNL     1      -4.692  -2.893  17.269  0.00  0.00    +0.117 C 
ATOM     16  H   UNL     1      -1.995  -3.406  16.871  0.00  0.00    +0.154 HD
BRANCH  14  17
ATOM     17  O   UNL     1      -2.147  -1.546  17.144  0.00  0.00    -0.153 OA
BRANCH  17  18
ATOM     18  O   UNL     1      -2.878  -1.536  18.714  0.00  0.00    -0.237 OA
ATOM     19  H   UNL     1      -2.676  -0.698  19.159  0.00  0.00    +0.254 HD
ENDBRANCH  17  18
ENDBRANCH  14  17
ENDBRANCH  13  14
ENDBRANCH   1  13
TORSDOF 5
