REMARK  Name = =
REMARK  4 active torsions:
REMARK  status: ('A' for Active; 'I' for Inactive)
REMARK    1  A    between atoms: C_1  and  O_18
REMARK    2  A    between atoms: C_3  and  N_13
REMARK    3  A    between atoms: C_5  and  C_6
REMARK    4  A    between atoms: O_18  and  S_19
REMARK                            x       y       z     vdW  Elec       q    Type
REMARK                         _______ _______ _______ _____ _____    ______ ____
ROOT
ATOM      1  C   UNL     1       0.097  -0.734  20.059  0.00  0.00    +0.255 C 
ATOM      2  N   UNL     1       1.352  -1.089  19.937  0.00  0.00    -0.193 NA
ATOM      3  C   UNL     1       2.134   0.086  20.201  0.00  0.00    +0.312 C 
ATOM      4  N   UNL     1       1.186   1.124  20.480  0.00  0.00    -0.225 NA
ATOM      5  C   UNL     1      -0.015   0.657  20.401  0.00  0.00    +0.142 C 
ENDROOT
BRANCH   5   6
ATOM      6  C   UNL     1      -1.218   1.491  20.639  0.00  0.00    +0.182 C 
ATOM      7  O   UNL     1      -2.201   0.759  21.311  0.00  0.00    -0.337 OA
ATOM      8  C   UNL     1      -3.191   1.603  21.801  0.00  0.00    +0.211 C 
ATOM      9  C   UNL     1      -3.645   2.573  20.774  0.00  0.00    +0.203 C 
ATOM     10  O   UNL     1      -4.542   3.387  21.040  0.00  0.00    -0.289 OA
ATOM     11  C   UNL     1      -3.015   2.543  19.459  0.00  0.00    +0.038 C 
ATOM     12  C   UNL     1      -1.807   2.006  19.382  0.00  0.00    +0.012 C 
ENDBRANCH   5   6
BRANCH   3  13
ATOM     13  N   UNL     1       3.053  -0.091  21.298  0.00  0.00    -0.169 N 
ATOM     14  N   UNL     1       3.299   0.747  22.301  0.00  0.00    -0.173 NA
ATOM     15  C   UNL     1       4.230   0.216  23.130  0.00  0.00    +0.119 C 
ATOM     16  C   UNL     1       4.583  -1.014  22.618  0.00  0.00    +0.040 C 
ATOM     17  C   UNL     1       3.838  -1.180  21.481  0.00  0.00    +0.090 C 
ENDBRANCH   3  13
BRANCH   1  18
ATOM     18  O   UNL     1      -0.961  -1.615  19.876  0.00  0.00    -0.383 OA
BRANCH  18  19
ATOM     19  S   UNL     1      -1.017  -3.100  20.109  0.00  0.00    +0.177 S 
ATOM     20  C   UNL     1      -0.645  -4.632  20.278  0.00  0.00    +0.103 C 
ATOM     21  O   UNL     1      -2.291  -2.911  18.967  0.00  0.00    -0.115 OA
ENDBRANCH  18  19
ENDBRANCH   1  18
TORSDOF 4
REMARK  Name = =
REMARK  4 active torsions:
REMARK  status: ('A' for Active; 'I' for Inactive)
REMARK    1  A    between atoms: C_1  and  O_18
REMARK    2  A    between atoms: C_3  and  N_13
REMARK    3  A    between atoms: C_5  and  C_6
REMARK    4  A    between atoms: O_18  and  S_19
REMARK                            x       y       z     vdW  Elec       q    Type
REMARK                         _______ _______ _______ _____ _____    ______ ____
ROOT
ATOM      1  H   UNK     1      -0.387  -2.684  21.780  0.00  0.00    +0.000 HD
ENDROOT
TORSDOF 0
REMARK  Name = =
REMARK  4 active torsions:
REMARK  status: ('A' for Active; 'I' for Inactive)
REMARK    1  A    between atoms: C_1  and  O_18
REMARK    2  A    between atoms: C_3  and  N_13
REMARK    3  A    between atoms: C_5  and  C_6
REMARK    4  A    between atoms: O_18  and  S_19
REMARK                            x       y       z     vdW  Elec       q    Type
REMARK                         _______ _______ _______ _____ _____    ______ ____
ROOT
ATOM      1  O   HOH     1       0.023  -3.395  18.147  0.00  0.00    -0.253 OA
ATOM      2  H   HOH     0       0.993  -3.395  18.147  0.00  0.00    +0.253 HD
ENDROOT
TORSDOF 0
