REMARK  Name = =
REMARK  6 active torsions:
REMARK  status: ('A' for Active; 'I' for Inactive)
REMARK    1  A    between atoms: C_1  and  O_20
REMARK    2  A    between atoms: C_3  and  N_13
REMARK    3  A    between atoms: C_5  and  C_6
REMARK    4  A    between atoms: C_17  and  N_18
REMARK    5  A    between atoms: O_20  and  S_21
REMARK    6  A    between atoms: S_21  and  O_23
REMARK                            x       y       z     vdW  Elec       q    Type
REMARK                         _______ _______ _______ _____ _____    ______ ____
ROOT
ATOM      1  C   UNL     1      -0.163  -1.929  20.225  0.00  0.00    +0.255 C 
ATOM      2  N   UNL     1      -0.913  -1.645  19.228  0.00  0.00    -0.193 NA
ATOM      3  C   UNL     1      -0.504  -0.357  18.740  0.00  0.00    +0.313 C 
ATOM      4  N   UNL     1       0.561   0.028  19.592  0.00  0.00    -0.225 NA
ATOM      5  C   UNL     1       0.796  -0.864  20.479  0.00  0.00    +0.142 C 
ENDROOT
BRANCH   5   6
ATOM      6  C   UNL     1       1.840  -0.813  21.547  0.00  0.00    +0.182 C 
ATOM      7  O   UNL     1       2.869   0.019  21.111  0.00  0.00    -0.337 OA
ATOM      8  C   UNL     1       4.000  -0.126  21.928  0.00  0.00    +0.211 C 
ATOM      9  C   UNL     1       3.620  -0.136  23.365  0.00  0.00    +0.203 C 
ATOM     10  O   UNL     1       4.508  -0.326  24.212  0.00  0.00    -0.289 OA
ATOM     11  C   UNL     1       2.208   0.079  23.731  0.00  0.00    +0.038 C 
ATOM     12  C   UNL     1       1.319  -0.265  22.811  0.00  0.00    +0.012 C 
ENDBRANCH   5   6
BRANCH   3  13
ATOM     13  N   UNL     1      -1.596   0.596  18.715  0.00  0.00    -0.153 N 
ATOM     14  N   UNL     1      -1.778   1.441  17.724  0.00  0.00    -0.172 NA
ATOM     15  C   UNL     1      -2.860   2.211  17.947  0.00  0.00    +0.121 C 
ATOM     16  C   UNL     1      -3.386   1.830  19.139  0.00  0.00    +0.058 C 
ATOM     17  C   UNL     1      -2.578   0.815  19.605  0.00  0.00    +0.156 C 
BRANCH  17  18
ATOM     18  N   UNL     1      -2.721   0.093  20.817  0.00  0.00    -0.226 NA
ATOM     19  C   UNL     1      -2.446   0.625  21.948  0.00  0.00    +0.121 C 
ENDBRANCH  17  18
ENDBRANCH   3  13
BRANCH   1  20
ATOM     20  O   UNL     1      -0.251  -3.117  20.982  0.00  0.00    -0.377 OA
BRANCH  20  21
ATOM     21  S   UNL     1      -1.152  -4.330  20.505  0.00  0.00    +0.225 S 
BRANCH  21  22
ATOM     22  O   UNL     1      -2.148  -4.188  20.457  0.00  0.00    -0.297 OA
ATOM     23  H   UNL     1      -2.577  -5.003  20.153  0.00  0.00    +0.231 HD
ENDBRANCH  21  22
ENDBRANCH  20  21
ENDBRANCH   1  20
TORSDOF 6
REMARK  Name = =
REMARK  6 active torsions:
REMARK  status: ('A' for Active; 'I' for Inactive)
REMARK    1  A    between atoms: C_1  and  O_20
REMARK    2  A    between atoms: C_3  and  N_13
REMARK    3  A    between atoms: C_5  and  C_6
REMARK    4  A    between atoms: C_17  and  N_18
REMARK    5  A    between atoms: O_20  and  S_21
REMARK    6  A    between atoms: S_21  and  O_23
REMARK                            x       y       z     vdW  Elec       q    Type
REMARK                         _______ _______ _______ _____ _____    ______ ____
ROOT
ATOM      1  C   UNL     1      -0.448  -5.901  20.483  0.00  0.00    +0.000 C 
ENDROOT
TORSDOF 0
REMARK  Name = =
REMARK  6 active torsions:
REMARK  status: ('A' for Active; 'I' for Inactive)
REMARK    1  A    between atoms: C_1  and  O_20
REMARK    2  A    between atoms: C_3  and  N_13
REMARK    3  A    between atoms: C_5  and  C_6
REMARK    4  A    between atoms: C_17  and  N_18
REMARK    5  A    between atoms: O_20  and  S_21
REMARK    6  A    between atoms: S_21  and  O_23
REMARK                            x       y       z     vdW  Elec       q    Type
REMARK                         _______ _______ _______ _____ _____    ______ ____
ROOT
ATOM      1  O   HOH     1      -0.550  -4.541  18.249  0.00  0.00    -0.253 OA
ATOM      2  H   HOH     0       0.420  -4.541  18.249  0.00  0.00    +0.253 HD
ENDROOT
TORSDOF 0
