REMARK  Name = =
REMARK  7 active torsions:
REMARK  status: ('A' for Active; 'I' for Inactive)
REMARK    1  A    between atoms: C_1  and  O_26
REMARK    2  A    between atoms: C_3  and  N_13
REMARK    3  A    between atoms: C_5  and  C_6
REMARK    4  A    between atoms: C_15  and  S_20
REMARK    5  A    between atoms: C_17  and  N_18
REMARK    6  A    between atoms: S_20  and  C_21
REMARK    7  A    between atoms: O_26  and  S_27
REMARK                            x       y       z     vdW  Elec       q    Type
REMARK                         _______ _______ _______ _____ _____    ______ ____
ROOT
ATOM      1  C   UNL     1      -0.619  -2.325  19.770  0.00  0.00    +0.255 C 
ATOM      2  N   UNL     1       0.638  -2.607  19.776  0.00  0.00    -0.193 NA
ATOM      3  C   UNL     1       1.443  -1.421  19.580  0.00  0.00    +0.313 C 
ATOM      4  N   UNL     1       0.471  -0.382  19.454  0.00  0.00    -0.225 NA
ATOM      5  C   UNL     1      -0.710  -0.908  19.563  0.00  0.00    +0.142 C 
ENDROOT
BRANCH   5   6
ATOM      6  C   UNL     1      -1.938  -0.040  19.470  0.00  0.00    +0.182 C 
ATOM      7  O   UNL     1      -2.709  -0.161  20.624  0.00  0.00    -0.337 OA
ATOM      8  C   UNL     1      -3.974   0.351  20.327  0.00  0.00    +0.211 C 
ATOM      9  C   UNL     1      -3.877   1.771  19.895  0.00  0.00    +0.203 C 
ATOM     10  O   UNL     1      -4.849   2.543  19.882  0.00  0.00    -0.289 OA
ATOM     11  C   UNL     1      -2.574   2.264  19.472  0.00  0.00    +0.038 C 
ATOM     12  C   UNL     1      -1.618   1.376  19.261  0.00  0.00    +0.012 C 
ENDBRANCH   5   6
BRANCH   3  13
ATOM     13  N   UNL     1       2.341  -1.194  20.706  0.00  0.00    -0.152 N 
ATOM     14  N   UNL     1       2.964  -2.075  21.405  0.00  0.00    -0.167 NA
ATOM     15  C   UNL     1       3.722  -1.509  22.386  0.00  0.00    +0.134 C 
ATOM     16  C   UNL     1       3.541  -0.158  22.268  0.00  0.00    +0.063 C 
ATOM     17  C   UNL     1       2.656   0.008  21.190  0.00  0.00    +0.156 C 
BRANCH  17  18
ATOM     18  N   UNL     1       2.205   1.275  20.734  0.00  0.00    -0.226 NA
ATOM     19  C   UNL     1       2.892   2.332  20.896  0.00  0.00    +0.121 C 
ENDBRANCH  17  18
BRANCH  15  20
ATOM     20  S   UNL     1       4.709  -2.388  23.536  0.00  0.00    -0.027 S 
BRANCH  20  21
ATOM     21  C   UNL     1       5.961  -1.512  24.364  0.00  0.00    +0.213 A 
ATOM     22  N   UNL     1       6.473  -0.287  24.260  0.00  0.00    -0.234 N 
ATOM     23  N   UNL     1       7.448  -0.122  25.169  0.00  0.00    -0.046 NA
ATOM     24  N   UNL     1       7.562  -1.234  25.852  0.00  0.00    -0.022 NA
ATOM     25  N   UNL     1       6.688  -2.077  25.392  0.00  0.00    -0.101 NA
ATOM     26  H   UNL     1       6.181   0.396  23.614  0.00  0.00    +0.193 HD
ENDBRANCH  20  21
ENDBRANCH  15  20
ENDBRANCH   3  13
BRANCH   1  27
ATOM     27  O   UNL     1      -1.697  -3.185  19.924  0.00  0.00    -0.383 OA
BRANCH  27  28
ATOM     28  S   UNL     1      -1.686  -4.674  19.610  0.00  0.00    +0.177 S 
ATOM     29  C   UNL     1      -1.513  -6.184  19.263  0.00  0.00    +0.103 C 
ATOM     30  O   UNL     1      -3.356  -4.203  18.900  0.00  0.00    -0.115 OA
ENDBRANCH  27  28
ENDBRANCH   1  27
TORSDOF 7
REMARK  Name = =
REMARK  7 active torsions:
REMARK  status: ('A' for Active; 'I' for Inactive)
REMARK    1  A    between atoms: C_1  and  O_26
REMARK    2  A    between atoms: C_3  and  N_13
REMARK    3  A    between atoms: C_5  and  C_6
REMARK    4  A    between atoms: C_15  and  S_20
REMARK    5  A    between atoms: C_17  and  N_18
REMARK    6  A    between atoms: S_20  and  C_21
REMARK    7  A    between atoms: O_26  and  S_27
REMARK                            x       y       z     vdW  Elec       q    Type
REMARK                         _______ _______ _______ _____ _____    ______ ____
ROOT
ATOM      1  H   UNK     1      -0.688  -4.820  21.138  0.00  0.00    +0.000 HD
ENDROOT
TORSDOF 0
REMARK  Name = =
REMARK  7 active torsions:
REMARK  status: ('A' for Active; 'I' for Inactive)
REMARK    1  A    between atoms: C_1  and  O_26
REMARK    2  A    between atoms: C_3  and  N_13
REMARK    3  A    between atoms: C_5  and  C_6
REMARK    4  A    between atoms: C_15  and  S_20
REMARK    5  A    between atoms: C_17  and  N_18
REMARK    6  A    between atoms: S_20  and  C_21
REMARK    7  A    between atoms: O_26  and  S_27
REMARK                            x       y       z     vdW  Elec       q    Type
REMARK                         _______ _______ _______ _____ _____    ______ ____
ROOT
ATOM      1  O   HOH     1      -1.094  -4.427  17.446  0.00  0.00    -0.253 OA
ATOM      2  H   HOH     0      -0.124  -4.427  17.446  0.00  0.00    +0.253 HD
ENDROOT
TORSDOF 0
