REMARK  Name = =
REMARK  10 active torsions:
REMARK  status: ('A' for Active; 'I' for Inactive)
REMARK    1  A    between atoms: C_1  and  O_37
REMARK    2  A    between atoms: C_3  and  N_24
REMARK    3  A    between atoms: C_5  and  C_6
REMARK    4  A    between atoms: C_6  and  N_13
REMARK    5  A    between atoms: C_18  and  O_23
REMARK    6  A    between atoms: C_26  and  S_31
REMARK    7  A    between atoms: C_28  and  N_29
REMARK    8  A    between atoms: S_31  and  C_32
REMARK    9  A    between atoms: O_37  and  S_38
REMARK   10  A    between atoms: S_38  and  O_42
REMARK                            x       y       z     vdW  Elec       q    Type
REMARK                         _______ _______ _______ _____ _____    ______ ____
ROOT
ATOM      1  C   UNL     1       1.781  -4.150  22.034  0.00  0.00    +0.271 C 
ATOM      2  N   UNL     1       0.843  -3.305  21.785  0.00  0.00    -0.191 NA
ATOM      3  C   UNL     1       1.274  -2.071  22.404  0.00  0.00    +0.313 C 
ATOM      4  N   UNL     1       2.551  -2.325  23.023  0.00  0.00    -0.224 NA
ATOM      5  C   UNL     1       2.852  -3.543  22.809  0.00  0.00    +0.159 C 
ENDROOT
BRANCH   5   6
ATOM      6  C   UNL     1       4.090  -4.278  23.261  0.00  0.00    +0.219 C 
ATOM      7  O   UNL     1       4.565  -5.170  22.356  0.00  0.00    -0.324 OA
ATOM      8  C   UNL     1       5.441  -4.746  21.407  0.00  0.00    +0.213 C 
ATOM      9  C   UNL     1       6.459  -3.812  21.902  0.00  0.00    +0.203 C 
ATOM     10  O   UNL     1       7.572  -3.655  21.311  0.00  0.00    -0.289 OA
ATOM     11  C   UNL     1       6.182  -3.042  23.107  0.00  0.00    +0.040 C 
ATOM     12  C   UNL     1       5.041  -3.270  23.758  0.00  0.00    +0.029 C 
BRANCH   6  13
ATOM     13  N   UNL     1       3.684  -5.071  24.445  0.00  0.00    -0.226 N 
ATOM     14  C   UNL     1       4.430  -5.937  25.150  0.00  0.00    +0.164 A 
ATOM     15  N   UNL     1       5.717  -6.318  24.987  0.00  0.00    -0.197 NA
ATOM     16  C   UNL     1       6.249  -7.214  25.834  0.00  0.00    +0.217 A 
ATOM     17  N   UNL     1       5.542  -7.743  26.841  0.00  0.00    -0.178 NA
ATOM     18  C   UNL     1       4.279  -7.381  27.015  0.00  0.00    +0.245 A 
ATOM     19  C   UNL     1       3.686  -6.465  26.173  0.00  0.00    +0.168 A 
ATOM     20  N   UNL     1       2.468  -5.900  26.074  0.00  0.00    -0.220 NA
ATOM     21  C   UNL     1       2.478  -5.053  25.019  0.00  0.00    +0.171 C 
ATOM     22  N   UNL     1       7.613  -7.572  25.603  0.00  0.00    -0.327 N 
ATOM     23  H   UNL     1       8.108  -7.167  24.855  0.00  0.00    +0.145 HD
ATOM     24  H   UNL     1       8.057  -8.224  26.192  0.00  0.00    +0.145 HD
BRANCH  18  25
ATOM     25  O   UNL     1       3.544  -7.921  28.048  0.00  0.00    -0.491 OA
ATOM     26  H   UNL     1       3.937  -8.545  28.627  0.00  0.00    +0.294 HD
ENDBRANCH  18  25
ENDBRANCH   6  13
ENDBRANCH   5   6
BRANCH   3  27
ATOM     27  N   UNL     1       1.336  -0.981  21.451  0.00  0.00    -0.152 N 
ATOM     28  N   UNL     1       0.501   0.042  21.444  0.00  0.00    -0.167 NA
ATOM     29  C   UNL     1       0.818   0.877  20.446  0.00  0.00    +0.134 C 
ATOM     30  C   UNL     1       1.916   0.309  19.817  0.00  0.00    +0.063 C 
ATOM     31  C   UNL     1       2.227  -0.866  20.470  0.00  0.00    +0.156 C 
BRANCH  31  32
ATOM     32  N   UNL     1       3.290  -1.714  20.106  0.00  0.00    -0.226 NA
ATOM     33  C   UNL     1       3.132  -2.562  19.159  0.00  0.00    +0.121 C 
ENDBRANCH  31  32
BRANCH  29  34
ATOM     34  S   UNL     1       0.009   2.404  20.002  0.00  0.00    -0.027 S 
BRANCH  34  35
ATOM     35  C   UNL     1      -1.754   2.156  19.825  0.00  0.00    +0.213 A 
ATOM     36  N   UNL     1      -2.698   3.082  19.810  0.00  0.00    -0.234 N 
ATOM     37  N   UNL     1      -3.856   2.477  19.660  0.00  0.00    -0.046 NA
ATOM     38  N   UNL     1      -3.634   1.188  19.581  0.00  0.00    -0.022 NA
ATOM     39  N   UNL     1      -2.340   0.981  19.682  0.00  0.00    -0.101 NA
ATOM     40  H   UNL     1      -2.559   4.053  19.896  0.00  0.00    +0.193 HD
ENDBRANCH  34  35
ENDBRANCH  29  34
ENDBRANCH   3  27
BRANCH   1  41
ATOM     41  O   UNL     1       1.660  -5.464  21.558  0.00  0.00    -0.342 OA
BRANCH  41  42
ATOM     42  S   UNL     1       0.989  -6.044  20.322  0.00  0.00    +0.002 S 
ATOM     43  C   UNL     1      -0.316  -7.047  20.903  0.00  0.00    +0.191 C 
ATOM     44  O   UNL     1       2.183  -6.096  19.791  0.00  0.00    -0.064 OA
BRANCH  42  45
ATOM     45  O   UNL     1      -0.060  -5.099  19.072  0.00  0.00    -0.265 OA
ATOM     46  H   UNL     1      -0.968  -5.022  19.404  0.00  0.00    +0.243 HD
ENDBRANCH  42  45
ENDBRANCH  41  42
ENDBRANCH   1  41
TORSDOF 10
REMARK  Name = =
REMARK  10 active torsions:
REMARK  status: ('A' for Active; 'I' for Inactive)
REMARK    1  A    between atoms: C_1  and  O_37
REMARK    2  A    between atoms: C_3  and  N_24
REMARK    3  A    between atoms: C_5  and  C_6
REMARK    4  A    between atoms: C_6  and  N_13
REMARK    5  A    between atoms: C_18  and  O_23
REMARK    6  A    between atoms: C_26  and  S_31
REMARK    7  A    between atoms: C_28  and  N_29
REMARK    8  A    between atoms: S_31  and  C_32
REMARK    9  A    between atoms: O_37  and  S_38
REMARK   10  A    between atoms: S_38  and  O_42
REMARK                            x       y       z     vdW  Elec       q    Type
REMARK                         _______ _______ _______ _____ _____    ______ ____
ROOT
ATOM      1  H   UNK     1      -0.277  -4.297  20.264  0.00  0.00    +0.000 HD
ENDROOT
TORSDOF 0
