REMARK  Name = =
REMARK  7 active torsions:
REMARK  status: ('A' for Active; 'I' for Inactive)
REMARK    1  A    between atoms: N_1  and  C_20
REMARK    2  A    between atoms: C_5  and  S_7
REMARK    3  A    between atoms: N_6  and  N_25
REMARK    4  A    between atoms: C_10  and  C_17
REMARK    5  A    between atoms: C_17  and  O_19
REMARK    6  A    between atoms: N_25  and  C_26
REMARK    7  A    between atoms: C_26  and  N_28
REMARK                            x       y       z     vdW  Elec       q    Type
REMARK                         _______ _______ _______ _____ _____    ______ ____
ROOT
ATOM      1  N   UNL     1     -11.055 -45.441  30.208  0.00  0.00    -0.182 N 
ATOM      2  C   UNL     1      -9.887 -45.770  30.934  0.00  0.00    +0.311 C 
ATOM      3  O   UNL     1      -9.726 -45.515  32.115  0.00  0.00    -0.252 OA
ATOM      4  N   UNL     1      -8.803 -46.447  30.276  0.00  0.00    -0.313 N 
ATOM      5  C   UNL     1     -12.198 -44.788  30.694  0.00  0.00    +0.181 C 
ATOM      6  N   UNL     1     -13.172 -44.552  29.880  0.00  0.00    -0.158 NA
ATOM      7  H   UNL     1      -8.875 -46.680  29.322  0.00  0.00    +0.147 HD
ATOM      8  H   UNL     1      -7.989 -46.678  30.779  0.00  0.00    +0.147 HD
ENDROOT
BRANCH   5   9
ATOM      9  S   UNL     1     -12.380 -44.223  32.417  0.00  0.00    -0.101 S 
ATOM     10  C   UNL     1     -13.887 -44.540  33.224  0.00  0.00    +0.084 C 
ATOM     11  C   UNL     1     -14.741 -43.363  33.262  0.00  0.00    +0.007 C 
ATOM     12  C   UNL     1     -14.300 -42.114  33.463  0.00  0.00    +0.127 C 
ATOM     13  N   UNL     1     -12.914 -41.930  33.652  0.00  0.00    -0.245 N 
ATOM     14  C   UNL     1     -11.935 -42.674  32.849  0.00  0.00    +0.135 C 
ATOM     15  C   UNL     1     -11.001 -42.446  34.019  0.00  0.00    +0.117 C 
ATOM     16  C   UNL     1     -11.850 -41.290  34.328  0.00  0.00    +0.233 C 
ATOM     17  O   UNL     1     -11.730 -40.187  34.928  0.00  0.00    -0.274 OA
BRANCH  12  18
ATOM     18  C   UNL     1     -15.232 -40.998  33.482  0.00  0.00    +0.352 C 
ATOM     19  O   UNL     1     -15.741 -40.620  32.376  0.00  0.00    -0.244 OA
BRANCH  18  20
ATOM     20  O   UNL     1     -15.586 -40.332  34.640  0.00  0.00    -0.476 OA
ATOM     21  H   UNL     1     -15.222 -40.596  35.462  0.00  0.00    +0.295 HD
ENDBRANCH  18  20
ENDBRANCH  12  18
ENDBRANCH   5   9
BRANCH   1  22
ATOM     22  C   UNL     1     -11.008 -45.841  28.831  0.00  0.00    +0.185 C 
ATOM     23  N   UNL     1      -9.948 -46.417  28.190  0.00  0.00    -0.188 NA
ATOM     24  C   UNL     1     -10.280 -46.647  26.913  0.00  0.00    +0.286 C 
ATOM     25  O   UNL     1     -11.511 -46.235  26.734  0.00  0.00    -0.427 OA
ATOM     26  C   UNL     1     -11.979 -45.738  27.896  0.00  0.00    +0.217 C 
ENDBRANCH   1  22
BRANCH   6  27
ATOM     27  N   UNL     1     -14.306 -43.901  30.364  0.00  0.00    -0.216 N 
ATOM     28  H   UNL     1     -14.477 -43.920  31.333  0.00  0.00    +0.176 HD
BRANCH  27  29
ATOM     29  C   UNL     1     -15.225 -43.213  29.533  0.00  0.00    +0.147 C 
ATOM     30  S   UNL     1     -16.573 -42.572  30.205  0.00  0.00    -0.017 S 
BRANCH  29  31
ATOM     31  N   UNL     1     -15.049 -43.039  28.143  0.00  0.00    -0.339 N 
ATOM     32  H   UNL     1     -15.724 -42.551  27.619  0.00  0.00    +0.144 HD
ATOM     33  H   UNL     1     -14.251 -43.406  27.698  0.00  0.00    +0.144 HD
ENDBRANCH  29  31
ENDBRANCH  27  29
ENDBRANCH   6  27
TORSDOF 7
REMARK  Name = =
REMARK  7 active torsions:
REMARK  status: ('A' for Active; 'I' for Inactive)
REMARK    1  A    between atoms: N_1  and  C_20
REMARK    2  A    between atoms: C_5  and  S_7
REMARK    3  A    between atoms: N_6  and  N_25
REMARK    4  A    between atoms: C_10  and  C_17
REMARK    5  A    between atoms: C_17  and  O_19
REMARK    6  A    between atoms: N_25  and  C_26
REMARK    7  A    between atoms: C_26  and  N_28
REMARK                            x       y       z     vdW  Elec       q    Type
REMARK                         _______ _______ _______ _____ _____    ______ ____
ROOT
ATOM      1  H   UNK     1     -11.212 -45.327  33.268  0.00  0.00    +0.000 HD
ENDROOT
TORSDOF 0
