REMARK  Name = =
REMARK  7 active torsions:
REMARK  status: ('A' for Active; 'I' for Inactive)
REMARK    1  A    between atoms: C_4  and  C_22
REMARK    2  A    between atoms: N_6  and  N_7
REMARK    3  A    between atoms: C_10  and  S_14
REMARK    4  A    between atoms: S_14  and  C_15
REMARK    5  A    between atoms: C_18  and  O_21
REMARK    6  A    between atoms: C_22  and  C_24
REMARK    7  A    between atoms: N_23  and  O_27
REMARK                            x       y       z     vdW  Elec       q    Type
REMARK                         _______ _______ _______ _____ _____    ______ ____
ROOT
ATOM      1  S   UNL     1     -11.533 -42.305  29.014  0.00  0.00    -0.050 S 
ATOM      2  C   UNL     1     -11.960 -44.075  28.882  0.00  0.00    +0.176 C 
ATOM      3  N   UNL     1     -11.021 -44.583  29.453  0.00  0.00    -0.221 NA
ATOM      4  C   UNL     1     -10.000 -43.988  30.000  0.00  0.00    +0.115 C 
ATOM      5  C   UNL     1      -9.965 -42.623  29.934  0.00  0.00    +0.059 C 
ATOM      6  N   UNL     1     -13.146 -44.512  28.232  0.00  0.00    -0.233 N 
ATOM      7  H   UNL     1     -13.329 -45.478  28.185  0.00  0.00    +0.173 HD
ENDROOT
BRANCH   6   8
ATOM      8  N   UNL     1     -14.055 -43.636  27.662  0.00  0.00    -0.154 N 
ATOM      9  C   UNL     1     -14.041 -43.099  26.340  0.00  0.00    +0.258 C 
ATOM     10  O   UNL     1     -13.026 -42.924  25.632  0.00  0.00    -0.272 OA
ATOM     11  C   UNL     1     -15.462 -42.806  26.021  0.00  0.00    +0.139 C 
ATOM     12  C   UNL     1     -15.941 -42.229  27.336  0.00  0.00    +0.108 C 
ATOM     13  C   UNL     1     -15.206 -43.088  28.302  0.00  0.00    +0.249 C 
ATOM     14  O   UNL     1     -15.563 -43.285  29.488  0.00  0.00    -0.273 OA
BRANCH  11  15
ATOM     15  S   UNL     1     -15.677 -41.698  24.636  0.00  0.00    -0.105 S 
BRANCH  15  16
ATOM     16  C   UNL     1     -17.414 -41.667  24.217  0.00  0.00    +0.026 C 
ATOM     17  C   UNL     1     -17.818 -41.894  22.910  0.00  0.00    +0.009 C 
ATOM     18  C   UNL     1     -19.152 -41.875  22.568  0.00  0.00    +0.037 C 
ATOM     19  C   UNL     1     -20.146 -41.633  23.486  0.00  0.00    +0.134 C 
ATOM     20  C   UNL     1     -19.747 -41.405  24.803  0.00  0.00    +0.037 C 
ATOM     21  C   UNL     1     -18.402 -41.425  25.142  0.00  0.00    +0.009 C 
BRANCH  19  22
ATOM     22  O   UNL     1     -21.493 -41.614  23.142  0.00  0.00    -0.506 OA
ATOM     23  H   UNL     1     -21.752 -41.768  22.255  0.00  0.00    +0.292 HD
ENDBRANCH  19  22
ENDBRANCH  15  16
ENDBRANCH  11  15
ENDBRANCH   6   8
BRANCH   4  24
ATOM     24  C   UNL     1      -8.894 -44.727  30.683  0.00  0.00    +0.190 C 
ATOM     25  N   UNL     1      -9.186 -45.835  31.340  0.00  0.00    -0.080 NA
BRANCH  24  26
ATOM     26  C   UNL     1      -7.529 -44.301  30.663  0.00  0.00    +0.265 C 
ATOM     27  O   UNL     1      -7.147 -43.303  30.033  0.00  0.00    -0.269 OA
ATOM     28  N   UNL     1      -6.544 -45.024  31.383  0.00  0.00    -0.324 N 
ATOM     29  H   UNL     1      -6.799 -45.823  31.898  0.00  0.00    +0.145 HD
ATOM     30  H   UNL     1      -5.606 -44.727  31.368  0.00  0.00    +0.145 HD
ENDBRANCH  24  26
BRANCH  25  31
ATOM     31  O   UNL     1     -10.488 -46.276  31.378  0.00  0.00    -0.409 OA
ATOM     32  H   UNL     1     -10.703 -47.061  31.842  0.00  0.00    +0.328 HD
ENDBRANCH  25  31
ENDBRANCH   4  24
TORSDOF 7
