MODEL 1
REMARK VINA RESULT:    -6.808      0.000      0.000
REMARK INTER + INTRA:          -9.966
REMARK INTER:                  -8.798
REMARK INTRA:                  -1.168
REMARK UNBOUND:                -1.168
REMARK  Name = =
REMARK  5 active torsions:
REMARK  status: ('A' for Active; 'I' for Inactive)
REMARK    1  A    between atoms: C_1  and  O_18
REMARK    2  A    between atoms: C_2  and  C_7
REMARK    3  A    between atoms: C_4  and  C_16
REMARK    4  A    between atoms: O_18  and  C_19
REMARK    5  A    between atoms: C_19  and  C_25
REMARK                            x       y       z     vdW  Elec       q    Type
REMARK                         _______ _______ _______ _____ _____    ______ ____
ROOT
ATOM      1  C   UNL     1      60.850 161.786  38.142  0.00  0.00    +0.135 C 
ATOM      2  C   UNL     1      61.352 161.227  39.265  0.00  0.00    +0.022 C 
ATOM      3  C   UNL     1      60.691 160.144  39.890  0.00  0.00    -0.001 C 
ATOM      4  C   UNL     1      59.520 159.628  39.396  0.00  0.00    -0.000 C 
ATOM      5  C   UNL     1      59.022 160.219  38.253  0.00  0.00    +0.003 C 
ATOM      6  C   UNL     1      59.642 161.261  37.628  0.00  0.00    +0.037 C 
ENDROOT
BRANCH   2   7
ATOM      7  C   UNL     1      62.544 161.774  39.957  0.00  0.00    +0.121 C 
ATOM      8  C   UNL     1      63.867 161.580  39.348  0.00  0.00    +0.093 C 
ATOM      9  N   UNL     1      64.423 161.184  40.667  0.00  0.00    -0.258 N 
ATOM     10  C   UNL     1      65.827 161.194  40.704  0.00  0.00    +0.063 C 
ATOM     11  C   UNL     1      66.494 160.957  39.554  0.00  0.00    -0.010 C 
ATOM     12  C   UNL     1      65.816 160.689  38.270  0.00  0.00    +0.029 C 
ATOM     13  C   UNL     1      64.297 160.488  38.478  0.00  0.00    +0.026 C 
ATOM     14  C   UNL     1      63.096 161.011  41.090  0.00  0.00    +0.235 C 
ATOM     15  O   UNL     1      62.630 160.392  42.109  0.00  0.00    -0.274 OA
ENDBRANCH   2   7
BRANCH   4  16
ATOM     16  C   UNL     1      58.863 158.513  40.067  0.00  0.00    -0.000 C 
ATOM     17  C   UNL     1      59.188 158.059  41.249  0.00  0.00    -0.000 C 
ENDBRANCH   4  16
BRANCH   1  18
ATOM     18  O   UNL     1      61.410 162.852  37.395  0.00  0.00    -0.482 OA
BRANCH  18  19
ATOM     19  C   UNL     1      60.988 164.196  37.648  0.00  0.00    +0.139 C 
ATOM     20  C   UNL     1      62.110 164.919  38.392  0.00  0.00    +0.059 C 
ATOM     21  C   UNL     1      61.624 166.265  38.902  0.00  0.00    +0.092 C 
ATOM     22  N   UNL     1      60.557 166.041  39.856  0.00  0.00    -0.218 NA
ATOM     23  C   UNL     1      59.427 165.517  39.116  0.00  0.00    +0.092 C 
ATOM     24  C   UNL     1      59.839 164.148  38.606  0.00  0.00    +0.059 C 
BRANCH  19  25
ATOM     25  C   UNL     1      60.638 164.878  36.394  0.00  0.00    +0.059 C 
ATOM     26  C   UNL     1      59.563 164.314  35.526  0.00  0.00    +0.016 C 
ATOM     27  C   UNL     1      59.053 165.447  34.620  0.00  0.00    +0.070 C 
ATOM     28  C   UNL     1      60.184 166.291  34.171  0.00  0.00    +0.173 C 
ATOM     29  O   UNL     1      59.955 167.373  33.610  0.00  0.00    -0.291 OA
ATOM     30  C   UNL     1      61.543 165.826  34.403  0.00  0.00    +0.033 C 
ATOM     31  C   UNL     1      61.802 165.124  35.490  0.00  0.00    -0.020 C 
ENDBRANCH  19  25
ENDBRANCH  18  19
ENDBRANCH   1  18
TORSDOF 5
ENDMDL
