REMARK  Name = =
REMARK  15 active torsions:
REMARK  status: ('A' for Active; 'I' for Inactive)
REMARK    1  A    between atoms: C_1  and  S_8
REMARK    2  A    between atoms: C_1  and  N_19
REMARK    3  A    between atoms: C_2  and  C_17
REMARK    4  A    between atoms: O_4  and  O_7
REMARK    5  A    between atoms: S_5  and  O_6
REMARK    6  A    between atoms: S_8  and  P_9
REMARK    7  A    between atoms: S_8  and  O_13
REMARK    8  A    between atoms: P_9  and  O_11
REMARK    9  A    between atoms: P_9  and  O_12
REMARK   10  A    between atoms: O_13  and  S_14
REMARK   11  A    between atoms: S_14  and  O_16
REMARK   12  A    between atoms: N_19  and  C_21
REMARK   13  A    between atoms: N_19  and  P_27
REMARK   14  A    between atoms: P_27  and  N_29
REMARK   15  A    between atoms: P_27  and  N_30
REMARK                            x       y       z     vdW  Elec       q    Type
REMARK                         _______ _______ _______ _____ _____    ______ ____
ROOT
ATOM      1  C   UNL     1      53.152 153.175  26.372  0.00  0.00    +0.096 C 
ATOM      2  C   UNL     1      52.314 152.774  27.267  0.00  0.00    +0.022 C 
ENDROOT
BRANCH   1   3
ATOM      3  S   UNL     1      54.196 152.124  25.488  0.00  0.00    +0.024 S 
ATOM      4  H   UNL     1      54.145 152.399  24.157  0.00  0.00    +0.129 HD
BRANCH   3   5
ATOM      5  P   UNL     1      55.942 152.254  26.123  0.00  0.00    +0.396 P 
ATOM      6  O   UNL     1      56.475 153.604  25.588  0.00  0.00    -0.245 OA
BRANCH   5   7
ATOM      7  O   UNL     1      56.986 151.099  25.487  0.00  0.00    -0.316 OA
ATOM      8  H   UNL     1      56.711 150.217  25.783  0.00  0.00    +0.221 HD
ENDBRANCH   5   7
BRANCH   5   9
ATOM      9  O   UNL     1      56.076 152.351  27.780  0.00  0.00    -0.316 OA
ATOM     10  H   UNL     1      55.463 153.024  28.115  0.00  0.00    +0.221 HD
ENDBRANCH   5   9
ENDBRANCH   3   5
BRANCH   3  11
ATOM     11  O   UNL     1      53.675 150.474  26.002  0.00  0.00    -0.166 OA
BRANCH  11  12
ATOM     12  S   UNL     1      53.869 149.472  24.675  0.00  0.00    +0.151 S 
ATOM     13  O   UNL     1      55.306 149.061  24.425  0.00  0.00    -0.136 OA
BRANCH  12  14
ATOM     14  O   UNL     1      52.812 148.146  24.676  0.00  0.00    -0.245 OA
ATOM     15  H   UNL     1      52.971 147.605  23.887  0.00  0.00    +0.245 HD
ENDBRANCH  12  14
ENDBRANCH  11  12
ENDBRANCH   3  11
ENDBRANCH   1   3
BRANCH   2  16
ATOM     16  C   UNL     1      51.511 153.751  27.982  0.00  0.00    +0.002 C 
ATOM     17  C   UNL     1      51.112 153.691  29.217  0.00  0.00    +0.000 C 
ENDBRANCH   2  16
BRANCH   1  18
ATOM     18  N   UNL     1      53.222 154.613  26.114  0.00  0.00    -0.231 N 
BRANCH  18  20
ATOM     19  N   UNL     1      54.688 155.219  24.210  0.00  0.00    -0.260 NA
ATOM     20  C   UNL     1      53.362 155.182  24.828  0.00  0.00    +0.115 C 
ATOM     21  C   UNL     1      53.312 156.682  24.750  0.00  0.00    +0.052 C 
ATOM     22  C   UNL     1      54.854 156.506  24.790  0.00  0.00    +0.077 C 
ATOM     23  C   UNL     1      52.604 154.563  23.671  0.00  0.00    +0.036 C 
ATOM     24  C   UNL     1      53.596 153.548  23.174  0.00  0.00    +0.020 C 
ATOM     25  C   UNL     1      54.799 153.986  23.518  0.00  0.00    +0.074 C 
ENDBRANCH  18  20
BRANCH  18  26
ATOM     26  P   UNL     1      53.121 155.688  27.493  0.00  0.00    +0.297 P 
ATOM     27  O   UNL     1      51.653 155.992  27.840  0.00  0.00    -0.265 OA
BRANCH  26  28
ATOM     28  N   UNL     1      53.832 155.038  28.931  0.00  0.00    -0.254 NA
ATOM     29  H   UNL     1      53.435 154.118  29.120  0.00  0.00    +0.128 HD
ATOM     30  H   UNL     1      53.639 155.659  29.716  0.00  0.00    +0.128 HD
ENDBRANCH  26  28
BRANCH  26  31
ATOM     31  N   UNL     1      53.788 157.287  27.135  0.00  0.00    -0.254 NA
ATOM     32  H   UNL     1      53.357 157.653  26.286  0.00  0.00    +0.128 HD
ATOM     33  H   UNL     1      54.796 157.212  27.000  0.00  0.00    +0.128 HD
ENDBRANCH  26  31
ENDBRANCH  18  26
ENDBRANCH   1  18
TORSDOF 13
REMARK  Name = =
REMARK  15 active torsions:
REMARK  status: ('A' for Active; 'I' for Inactive)
REMARK    1  A    between atoms: C_1  and  S_8
REMARK    2  A    between atoms: C_1  and  N_19
REMARK    3  A    between atoms: C_2  and  C_17
REMARK    4  A    between atoms: O_4  and  O_7
REMARK    5  A    between atoms: S_5  and  O_6
REMARK    6  A    between atoms: S_8  and  P_9
REMARK    7  A    between atoms: S_8  and  O_13
REMARK    8  A    between atoms: P_9  and  O_11
REMARK    9  A    between atoms: P_9  and  O_12
REMARK   10  A    between atoms: O_13  and  S_14
REMARK   11  A    between atoms: S_14  and  O_16
REMARK   12  A    between atoms: N_19  and  C_21
REMARK   13  A    between atoms: N_19  and  P_27
REMARK   14  A    between atoms: P_27  and  N_29
REMARK   15  A    between atoms: P_27  and  N_30
REMARK                            x       y       z     vdW  Elec       q    Type
REMARK                         _______ _______ _______ _____ _____    ______ ____
ROOT
ATOM      1  P   UNL     1      52.147 151.052  27.661  0.00  0.00    +0.000 P 
ENDROOT
TORSDOF 0
REMARK  Name = =
REMARK  15 active torsions:
REMARK  status: ('A' for Active; 'I' for Inactive)
REMARK    1  A    between atoms: C_1  and  S_8
REMARK    2  A    between atoms: C_1  and  N_19
REMARK    3  A    between atoms: C_2  and  C_17
REMARK    4  A    between atoms: O_4  and  O_7
REMARK    5  A    between atoms: S_5  and  O_6
REMARK    6  A    between atoms: S_8  and  P_9
REMARK    7  A    between atoms: S_8  and  O_13
REMARK    8  A    between atoms: P_9  and  O_11
REMARK    9  A    between atoms: P_9  and  O_12
REMARK   10  A    between atoms: O_13  and  S_14
REMARK   11  A    between atoms: S_14  and  O_16
REMARK   12  A    between atoms: N_19  and  C_21
REMARK   13  A    between atoms: N_19  and  P_27
REMARK   14  A    between atoms: P_27  and  N_29
REMARK   15  A    between atoms: P_27  and  N_30
REMARK                            x       y       z     vdW  Elec       q    Type
REMARK                         _______ _______ _______ _____ _____    ______ ____
ROOT
ATOM      1  O   UNL     1      50.842 150.479  27.168  0.00  0.00    -0.253 OA
ATOM      2  H   UNL     1      50.959 150.555  28.128  0.00  0.00    +0.253 HD
ENDROOT
BRANCH   1   3
ATOM      3  O   UNL     1      52.113 149.818  26.539  0.00  0.00    -0.253 OA
ATOM      4  H   UNL     1      51.996 149.742  25.579  0.00  0.00    +0.253 HD
ENDBRANCH   1   3
TORSDOF 1
REMARK  Name = =
REMARK  15 active torsions:
REMARK  status: ('A' for Active; 'I' for Inactive)
REMARK    1  A    between atoms: C_1  and  S_8
REMARK    2  A    between atoms: C_1  and  N_19
REMARK    3  A    between atoms: C_2  and  C_17
REMARK    4  A    between atoms: O_4  and  O_7
REMARK    5  A    between atoms: S_5  and  O_6
REMARK    6  A    between atoms: S_8  and  P_9
REMARK    7  A    between atoms: S_8  and  O_13
REMARK    8  A    between atoms: P_9  and  O_11
REMARK    9  A    between atoms: P_9  and  O_12
REMARK   10  A    between atoms: O_13  and  S_14
REMARK   11  A    between atoms: S_14  and  O_16
REMARK   12  A    between atoms: N_19  and  C_21
REMARK   13  A    between atoms: N_19  and  P_27
REMARK   14  A    between atoms: P_27  and  N_29
REMARK   15  A    between atoms: P_27  and  N_30
REMARK                            x       y       z     vdW  Elec       q    Type
REMARK                         _______ _______ _______ _____ _____    ______ ____
ROOT
ATOM      1  S   UNL     1      50.595 150.599  29.095  0.00  0.00    -0.028 S 
ATOM      2  H   UNL     1      50.658 151.832  29.665  0.00  0.00    +0.133 HD
ENDROOT
BRANCH   1   3
ATOM      3  O   UNL     1      52.325 149.913  28.898  0.00  0.00    -0.332 OA
ATOM      4  H   UNL     1      52.280 149.033  28.491  0.00  0.00    +0.227 HD
ENDBRANCH   1   3
TORSDOF 1
