MODEL 1
REMARK VINA RESULT:   -12.068      0.000      0.000
REMARK INTER + INTRA:         -15.391
REMARK INTER:                 -14.537
REMARK INTRA:                  -0.854
REMARK UNBOUND:                -0.854
REMARK  Name = =
REMARK  4 active torsions:
REMARK  status: ('A' for Active; 'I' for Inactive)
REMARK    1  A    between atoms: C_1  and  C_25
REMARK    2  A    between atoms: C_16  and  N_38
REMARK    3  A    between atoms: C_28  and  N_30
REMARK    4  A    between atoms: N_39  and  N_40
REMARK                            x       y       z     vdW  Elec       q    Type
REMARK                         _______ _______ _______ _____ _____    ______ ____
ROOT
ATOM      1  C   UNL     1      -1.523  -6.964  32.569  0.00  0.00    +0.066 C 
ATOM      2  C   UNL     1      -1.897  -8.366  32.906  0.00  0.00    -0.022 C 
ATOM      3  C   UNL     1      -2.367  -9.235  31.798  0.00  0.00    -0.025 C 
ATOM      4  C   UNL     1      -2.365  -8.609  30.432  0.00  0.00    +0.052 C 
ATOM      5  C   UNL     1      -1.160  -7.724  30.266  0.00  0.00    -0.021 C 
ATOM      6  C   UNL     1      -0.756  -6.940  31.310  0.00  0.00    -0.018 C 
ATOM      7  C   UNL     1       0.374  -6.126  31.154  0.00  0.00    -0.001 C 
ATOM      8  C   UNL     1       1.100  -6.083  29.986  0.00  0.00    +0.042 C 
ATOM      9  C   UNL     1       0.678  -6.883  28.939  0.00  0.00    +0.042 C 
ATOM     10  C   UNL     1      -0.441  -7.693  29.086  0.00  0.00    -0.001 C 
ATOM     11  C   UNL     1       1.446  -6.842  27.695  0.00  0.00    +0.196 C 
ATOM     12  O   UNL     1       1.066  -7.567  26.738  0.00  0.00    -0.287 OA
ATOM     13  C   UNL     1       2.629  -5.987  27.544  0.00  0.00    +0.042 C 
ATOM     14  C   UNL     1       3.052  -5.190  28.586  0.00  0.00    +0.044 C 
ATOM     15  C   UNL     1       4.173  -4.382  28.435  0.00  0.00    +0.024 C 
ATOM     16  C   UNL     1       4.903  -4.338  27.259  0.00  0.00    +0.104 C 
ATOM     17  C   UNL     1       4.470  -5.141  26.222  0.00  0.00    +0.021 C 
ATOM     18  C   UNL     1       3.358  -5.944  26.370  0.00  0.00    +0.005 C 
ATOM     19  C   UNL     1       2.281  -5.235  29.824  0.00  0.00    +0.196 C 
ATOM     20  O   UNL     1       2.663  -4.509  30.777  0.00  0.00    -0.287 OA
ENDROOT
BRANCH   1  25
ATOM     21  C   UNL     1      -5.718  -3.279  32.083  0.00  0.00    +0.063 C 
ATOM     22  C   UNL     1      -4.845  -4.283  32.422  0.00  0.00    +0.017 C 
ATOM     23  C   UNL     1      -4.795  -5.274  33.375  0.00  0.00    +0.001 C 
ATOM     24  C   UNL     1      -3.740  -6.149  33.449  0.00  0.00    -0.004 C 
ATOM     25  C   UNL     1      -2.705  -6.052  32.566  0.00  0.00    -0.014 C 
ATOM     26  C   UNL     1      -2.731  -5.065  31.603  0.00  0.00    -0.001 C 
ATOM     27  C   UNL     1      -3.793  -4.192  31.537  0.00  0.00    +0.029 C 
ATOM     28  C   UNL     1      -4.019  -3.134  30.654  0.00  0.00    +0.114 C 
ATOM     29  N   UNL     1      -5.214  -2.618  31.043  0.00  0.00    -0.300 N 
ATOM     30  H   UNL     1      -5.653  -1.851  30.610  0.00  0.00    +0.153 HD
BRANCH  28  31
ATOM     31  N   UNL     1      -3.185  -2.704  29.596  0.00  0.00    -0.176 N 
ATOM     32  C   UNL     1      -2.552  -3.534  28.754  0.00  0.00    +0.318 C 
ATOM     33  O   UNL     1      -2.679  -4.778  28.881  0.00  0.00    -0.251 OA
ATOM     34  N   UNL     1      -1.763  -3.095  27.749  0.00  0.00    -0.266 N 
ATOM     35  C   UNL     1      -1.576  -1.779  27.548  0.00  0.00    +0.070 C 
ATOM     36  C   UNL     1      -2.210  -0.886  28.394  0.00  0.00    +0.075 C 
ATOM     37  C   UNL     1      -3.004  -1.389  29.404  0.00  0.00    +0.262 C 
ATOM     38  O   UNL     1      -3.571  -0.532  30.161  0.00  0.00    -0.269 OA
ATOM     39  H   UNL     1      -1.319  -3.745  27.158  0.00  0.00    +0.156 HD
ENDBRANCH  28  31
ENDBRANCH   1  25
BRANCH  16  40
ATOM     40  N   UNL     1       6.055  -3.513  27.089  0.00  0.00    -0.133 NA
ATOM     41  N   UNL     1       5.880  -2.275  26.790  0.00  0.00    -0.084 NA
BRANCH  41  42
ATOM     42  N   UNL     1       6.927  -1.374  26.598  0.00  0.00    -0.264 N 
ATOM     43  H   UNL     1       7.766  -1.480  27.102  0.00  0.00    +0.166 HD
ATOM     44  H   UNL     1       6.827  -0.632  25.959  0.00  0.00    +0.166 HD
ENDBRANCH  41  42
ENDBRANCH  16  40
TORSDOF 4
ENDMDL
