REMARK  Name = =
REMARK  8 active torsions:
REMARK  status: ('A' for Active; 'I' for Inactive)
REMARK    1  A    between atoms: N_1  and  C_8
REMARK    2  A    between atoms: N_1  and  O_29
REMARK    3  A    between atoms: C_5  and  C_27
REMARK    4  A    between atoms: C_9  and  C_13
REMARK    5  A    between atoms: C_16  and  C_19
REMARK    6  A    between atoms: C_20  and  N_26
REMARK    7  A    between atoms: O_29  and  C_30
REMARK    8  A    between atoms: C_30  and  C_32
REMARK                            x       y       z     vdW  Elec       q    Type
REMARK                         _______ _______ _______ _____ _____    ______ ____
ROOT
ATOM      1  N   UNL     1      -2.089  -3.938  29.658  0.00  0.00    -0.087 N 
ATOM      2  C   UNL     1      -3.167  -3.167  30.160  0.00  0.00    +0.343 C 
ATOM      3  O   UNL     1      -3.550  -2.151  29.526  0.00  0.00    -0.249 OA
ATOM      4  N   UNL     1      -3.889  -3.441  31.359  0.00  0.00    -0.234 N 
ATOM      5  C   UNL     1      -4.942  -2.599  31.804  0.00  0.00    +0.253 C 
ATOM      6  O   UNL     1      -5.209  -1.566  31.093  0.00  0.00    -0.270 OA
ATOM      7  H   UNL     1      -3.651  -4.234  31.892  0.00  0.00    +0.159 HD
ENDROOT
BRANCH   1   9
ATOM      8  N   UNL     1      -2.084  -6.366  29.968  0.00  0.00    -0.276 NA
ATOM      9  C   UNL     1      -1.535  -5.077  30.290  0.00  0.00    +0.205 C 
ATOM     10  C   UNL     1      -0.046  -5.240  30.116  0.00  0.00    +0.174 C 
ATOM     11  O   UNL     1       0.367  -5.755  31.377  0.00  0.00    -0.347 OA
ATOM     12  C   UNL     1      -0.522  -6.672  31.886  0.00  0.00    +0.160 C 
ATOM     13  C   UNL     1      -1.526  -7.266  30.985  0.00  0.00    +0.102 C 
ATOM     14  H   UNL     1      -1.798  -6.657  29.033  0.00  0.00    +0.125 HD
BRANCH  10  15
ATOM     15  C   UNL     1       0.365  -6.274  29.136  0.00  0.00    +0.008 C 
ATOM     16  C   UNL     1       1.564  -6.788  29.263  0.00  0.00    -0.002 C 
ATOM     17  C   UNL     1       2.123  -7.827  28.380  0.00  0.00    -0.000 C 
ATOM     18  C   UNL     1       1.411  -8.301  27.402  0.00  0.00    +0.004 C 
ATOM     19  C   UNL     1       0.019  -7.846  27.210  0.00  0.00    -0.000 C 
ATOM     20  C   UNL     1      -0.424  -6.695  27.986  0.00  0.00    -0.002 C 
BRANCH  18  21
ATOM     21  C   UNL     1       1.930  -9.331  26.485  0.00  0.00    +0.050 C 
ATOM     22  C   UNL     1       2.538  -9.096  25.301  0.00  0.00    +0.130 C 
ATOM     23  N   UNL     1       3.032 -10.150  24.557  0.00  0.00    -0.199 NA
ATOM     24  C   UNL     1       2.921 -11.414  24.980  0.00  0.00    +0.215 C 
ATOM     25  N   UNL     1       2.315 -11.690  26.166  0.00  0.00    -0.212 NA
ATOM     26  C   UNL     1       1.836 -10.656  26.888  0.00  0.00    +0.105 C 
ATOM     27  N   UNL     1       3.418 -12.523  24.239  0.00  0.00    -0.327 N 
ATOM     28  H   UNL     1       3.865 -12.377  23.374  0.00  0.00    +0.145 HD
ATOM     29  H   UNL     1       3.315 -13.436  24.591  0.00  0.00    +0.145 HD
BRANCH  22  30
ATOM     30  N   UNL     1       2.705  -7.840  24.693  0.00  0.00    -0.343 N 
ATOM     31  H   UNL     1       2.385  -7.027  25.147  0.00  0.00    +0.144 HD
ATOM     32  H   UNL     1       3.142  -7.773  23.813  0.00  0.00    +0.144 HD
ENDBRANCH  22  30
ENDBRANCH  18  21
ENDBRANCH  10  15
ENDBRANCH   1   9
BRANCH   5  33
ATOM     33  C   UNL     1      -5.710  -2.838  32.986  0.00  0.00    +0.058 C 
ATOM     34  C   UNL     1      -5.767  -4.018  33.548  0.00  0.00    +0.005 C 
ENDBRANCH   5  33
BRANCH   1  35
ATOM     35  O   UNL     1      -1.608  -3.453  28.422  0.00  0.00    -0.337 OA
BRANCH  35  36
ATOM     36  C   UNL     1      -0.834  -2.260  28.586  0.00  0.00    +0.363 C 
ATOM     37  O   UNL     1      -1.304  -1.349  29.287  0.00  0.00    -0.243 OA
BRANCH  36  38
ATOM     38  C   UNL     1       0.448  -2.127  27.954  0.00  0.00    +0.078 C 
ATOM     39  C   UNL     1       0.564  -1.975  26.599  0.00  0.00    +0.006 C 
ATOM     40  C   UNL     1      -0.360  -1.775  25.486  0.00  0.00    +0.000 C 
ATOM     41  C   UNL     1       0.403  -1.686  24.314  0.00  0.00    +0.000 C 
ATOM     42  C   UNL     1       1.800  -1.823  24.700  0.00  0.00    +0.000 C 
ATOM     43  C   UNL     1       1.841  -1.987  26.068  0.00  0.00    +0.000 C 
ATOM     44  C   UNL     1       2.994  -2.137  26.805  0.00  0.00    +0.000 C 
ATOM     45  C   UNL     1       2.867  -2.285  28.168  0.00  0.00    +0.000 C 
ATOM     46  C   UNL     1       1.609  -2.277  28.714  0.00  0.00    +0.007 C 
ATOM     47  C   UNL     1       4.235  -2.134  26.173  0.00  0.00    +0.000 C 
ATOM     48  C   UNL     1       4.207  -1.972  24.809  0.00  0.00    +0.000 C 
ATOM     49  C   UNL     1       3.034  -1.819  24.070  0.00  0.00    +0.000 C 
ATOM     50  C   UNL     1      -0.182  -1.481  23.086  0.00  0.00    +0.000 C 
ATOM     51  C   UNL     1      -1.560  -1.355  22.998  0.00  0.00    +0.000 C 
ATOM     52  C   UNL     1      -2.325  -1.438  24.137  0.00  0.00    +0.000 C 
ATOM     53  C   UNL     1      -1.696  -1.648  25.366  0.00  0.00    +0.000 C 
ENDBRANCH  36  38
ENDBRANCH  35  36
ENDBRANCH   1  35
TORSDOF 8
