REMARK  Name = =
REMARK  3 active torsions:
REMARK  status: ('A' for Active; 'I' for Inactive)
REMARK    1  A    between atoms: C_1  and  C_21
REMARK    2  A    between atoms: C_2  and  N_7
REMARK    3  A    between atoms: C_3  and  O_22
REMARK                            x       y       z     vdW  Elec       q    Type
REMARK                         _______ _______ _______ _____ _____    ______ ____
ROOT
ATOM      1  C   UNL     1       0.449  -6.881  30.690  0.00  0.00    +0.098 C 
ATOM      2  C   UNL     1      -0.411  -6.743  31.724  0.00  0.00    +0.107 C 
ATOM      3  C   UNL     1       0.126  -6.734  33.031  0.00  0.00    +0.150 C 
ATOM      4  C   UNL     1       1.457  -6.861  33.256  0.00  0.00    +0.059 C 
ATOM      5  C   UNL     1       2.305  -7.001  32.185  0.00  0.00    +0.102 C 
ATOM      6  N   UNL     1       1.797  -7.007  30.955  0.00  0.00    -0.242 NA
ENDROOT
BRANCH   2   7
ATOM      7  N   UNL     1      -1.807  -6.627  31.557  0.00  0.00    -0.261 N 
ATOM      8  C   UNL     1      -2.445  -5.526  31.141  0.00  0.00    +0.056 C 
ATOM      9  C   UNL     1      -3.817  -5.776  31.057  0.00  0.00    +0.015 C 
ATOM     10  C   UNL     1      -3.999  -7.088  31.443  0.00  0.00    +0.018 C 
ATOM     11  C   UNL     1      -2.765  -7.586  31.742  0.00  0.00    +0.070 C 
ATOM     12  C   UNL     1      -4.717  -4.815  30.648  0.00  0.00    +0.001 C 
ATOM     13  C   UNL     1      -4.268  -3.558  30.306  0.00  0.00    +0.000 C 
ATOM     14  C   UNL     1      -2.916  -3.288  30.380  0.00  0.00    +0.001 C 
ATOM     15  C   UNL     1      -2.021  -4.246  30.788  0.00  0.00    +0.015 C 
ENDBRANCH   2   7
BRANCH   1  21
ATOM     16  C   UNL     1      -0.616  -7.966  28.692  0.00  0.00    -0.003 C 
ATOM     17  C   UNL     1      -0.204  -8.686  27.639  0.00  0.00    +0.114 C 
ATOM     18  N   UNL     1       1.042  -8.381  27.046  0.00  0.00    -0.328 N 
ATOM     19  C   UNL     1       1.845  -7.330  27.550  0.00  0.00    +0.058 C 
ATOM     20  C   UNL     1       1.456  -6.627  28.570  0.00  0.00    +0.017 C 
ATOM     21  C   UNL     1       0.142  -6.893  29.262  0.00  0.00    +0.018 C 
ATOM     22  H   UNL     1       1.355  -8.905  26.274  0.00  0.00    +0.147 HD
ENDBRANCH   1  21
BRANCH   3  23
ATOM     23  O   UNL     1      -0.817  -6.587  34.051  0.00  0.00    -0.504 OA
ATOM     24  H   UNL     1      -1.726  -6.503  33.840  0.00  0.00    +0.292 HD
ENDBRANCH   3  23
TORSDOF 3
