REMARK  Name = =
REMARK  2 active torsions:
REMARK  status: ('A' for Active; 'I' for Inactive)
REMARK    1  A    between atoms: C_1  and  C_10
REMARK    2  A    between atoms: C_2  and  C_13
REMARK                            x       y       z     vdW  Elec       q    Type
REMARK                         _______ _______ _______ _____ _____    ______ ____
ROOT
ATOM      1  C   UNL     1      -8.928  -1.621  32.165  0.00  0.00    -0.000 C 
ATOM      2  C   UNL     1      -9.969  -1.399  31.313  0.00  0.00    +0.027 C 
ATOM      3  C   UNL     1     -11.132  -2.115  31.504  0.00  0.00    -0.000 C 
ATOM      4  C   UNL     1     -11.247  -3.036  32.527  0.00  0.00    -0.000 C 
ATOM      5  C   UNL     1     -10.192  -3.261  33.390  0.00  0.00    -0.000 C 
ATOM      6  C   UNL     1      -9.033  -2.538  33.190  0.00  0.00    -0.000 C 
ENDROOT
BRANCH   1  10
ATOM      7  C   UNL     1      -5.339   0.466  31.677  0.00  0.00    -0.000 C 
ATOM      8  C   UNL     1      -5.283  -0.914  31.693  0.00  0.00    -0.000 C 
ATOM      9  C   UNL     1      -6.496  -1.551  31.856  0.00  0.00    -0.000 C 
ATOM     10  C   UNL     1      -7.684  -0.880  31.994  0.00  0.00    -0.000 C 
ATOM     11  C   UNL     1      -7.691   0.490  31.972  0.00  0.00    -0.000 C 
ATOM     12  C   UNL     1      -6.508   1.163  31.812  0.00  0.00    -0.000 C 
ENDBRANCH   1  10
BRANCH   2  13
ATOM     13  C   UNL     1      -9.930  -0.429  30.187  0.00  0.00    +0.273 C 
ATOM     14  N   UNL     1      -9.388  -1.059  28.999  0.00  0.00    -0.124 NA
ATOM     15  N   UNL     1     -10.318  -1.132  28.143  0.00  0.00    -0.025 NA
ATOM     16  N   UNL     1     -11.501  -0.601  28.617  0.00  0.00    -0.025 NA
ATOM     17  N   UNL     1     -11.299  -0.194  29.784  0.00  0.00    -0.124 NA
ENDBRANCH   2  13
TORSDOF 2
