REMARK  Name = =
REMARK  1 active torsions:
REMARK  status: ('A' for Active; 'I' for Inactive)
REMARK    1  A    between atoms: C_1  and  C_16
REMARK                            x       y       z     vdW  Elec       q    Type
REMARK                         _______ _______ _______ _____ _____    ______ ____
ROOT
ATOM      1  C   UNL     1       4.271  -3.386  25.388  0.00  0.00    -0.004 C 
ATOM      2  C   UNL     1       3.697  -4.347  24.607  0.00  0.00    +0.012 C 
ATOM      3  C   UNL     1       3.952  -4.465  23.223  0.00  0.00    +0.054 C 
ATOM      4  C   UNL     1       4.818  -3.563  22.654  0.00  0.00    +0.043 C 
ATOM      5  C   UNL     1       5.399  -2.598  23.411  0.00  0.00    +0.007 C 
ATOM      6  C   UNL     1       5.136  -2.507  24.747  0.00  0.00    -0.002 C 
ATOM      7  S   UNL     1       5.172  -3.676  20.884  0.00  0.00    -0.084 S 
ATOM      8  C   UNL     1       4.232  -5.040  20.283  0.00  0.00    +0.043 C 
ATOM      9  C   UNL     1       3.442  -5.763  21.123  0.00  0.00    +0.054 C 
ATOM     10  C   UNL     1       2.728  -6.831  20.560  0.00  0.00    +0.015 C 
ATOM     11  C   UNL     1       2.810  -7.145  19.234  0.00  0.00    +0.001 C 
ATOM     12  C   UNL     1       3.607  -6.414  18.395  0.00  0.00    +0.001 C 
ATOM     13  C   UNL     1       4.308  -5.359  18.967  0.00  0.00    +0.008 C 
ATOM     14  N   UNL     1       3.309  -5.495  22.499  0.00  0.00    -0.312 N 
ATOM     15  H   UNL     1       2.707  -6.085  23.008  0.00  0.00    +0.152 HD
ENDROOT
BRANCH   1  17
ATOM     16  N   UNL     1       5.071  -3.701  27.657  0.00  0.00    -0.268 NA
ATOM     17  C   UNL     1       4.017  -3.261  26.818  0.00  0.00    +0.109 C 
ATOM     18  C   UNL     1       2.815  -4.029  27.317  0.00  0.00    +0.164 C 
ATOM     19  O   UNL     1       3.212  -4.485  28.596  0.00  0.00    -0.336 OA
ATOM     20  C   UNL     1       4.583  -4.789  28.415  0.00  0.00    +0.217 C 
ATOM     21  H   UNL     1       5.866  -3.999  27.091  0.00  0.00    +0.126 HD
ENDBRANCH   1  17
TORSDOF 1
