REMARK  Name = =
REMARK  9 active torsions:
REMARK  status: ('A' for Active; 'I' for Inactive)
REMARK    1  A    between atoms: C_1  and  S_18
REMARK    2  A    between atoms: C_4  and  C_7
REMARK    3  A    between atoms: C_8  and  C_13
REMARK    4  A    between atoms: S_18  and  P_19
REMARK    5  A    between atoms: P_19  and  O_21
REMARK    6  A    between atoms: P_19  and  O_22
REMARK    7  A    between atoms: O_22  and  P_23
REMARK    8  A    between atoms: P_23  and  O_25
REMARK    9  A    between atoms: P_23  and  O_26
REMARK                            x       y       z     vdW  Elec       q    Type
REMARK                         _______ _______ _______ _____ _____    ______ ____
ROOT
ATOM      1  C   UNL     1     -14.344   0.798  22.835  0.00  0.00    +0.023 C 
ATOM      2  C   UNL     1     -14.905   1.184  21.626  0.00  0.00    +0.006 C 
ATOM      3  C   UNL     1     -14.305   2.165  20.840  0.00  0.00    +0.000 C 
ATOM      4  C   UNL     1     -13.142   2.756  21.277  0.00  0.00    -0.000 C 
ATOM      5  C   UNL     1     -12.610   2.344  22.494  0.00  0.00    +0.000 C 
ATOM      6  C   UNL     1     -13.197   1.374  23.275  0.00  0.00    +0.006 C 
ENDROOT
BRANCH   4   7
ATOM      7  C   UNL     1     -12.460   3.794  20.505  0.00  0.00    -0.000 C 
ATOM      8  C   UNL     1     -12.631   5.128  20.786  0.00  0.00    +0.027 C 
ATOM      9  C   UNL     1     -11.980   6.098  20.044  0.00  0.00    -0.000 C 
ATOM     10  C   UNL     1     -11.148   5.748  19.012  0.00  0.00    -0.000 C 
ATOM     11  C   UNL     1     -10.974   4.415  18.728  0.00  0.00    -0.000 C 
ATOM     12  C   UNL     1     -11.615   3.446  19.456  0.00  0.00    -0.000 C 
BRANCH   8  13
ATOM     13  C   UNL     1     -13.530   5.513  21.901  0.00  0.00    +0.273 C 
ATOM     14  N   UNL     1     -14.471   6.513  21.494  0.00  0.00    -0.124 NA
ATOM     15  N   UNL     1     -14.279   7.508  22.246  0.00  0.00    -0.025 NA
ATOM     16  N   UNL     1     -13.266   7.275  23.154  0.00  0.00    -0.025 NA
ATOM     17  N   UNL     1     -12.804   6.116  22.981  0.00  0.00    -0.124 NA
ENDBRANCH   8  13
ENDBRANCH   4   7
BRANCH   1  18
ATOM     18  S   UNL     1     -15.223  -0.468  23.726  0.00  0.00    -0.082 S 
ATOM     19  H   UNL     1     -14.517  -1.630  23.701  0.00  0.00    +0.108 HD
BRANCH  18  20
ATOM     20  P   UNL     1     -15.423   0.143  25.543  0.00  0.00    +0.389 P 
ATOM     21  O   UNL     1     -15.966   1.560  25.332  0.00  0.00    -0.246 OA
BRANCH  20  22
ATOM     22  O   UNL     1     -13.964   0.143  26.354  0.00  0.00    -0.316 OA
ATOM     23  H   UNL     1     -13.323   0.684  25.867  0.00  0.00    +0.221 HD
ENDBRANCH  20  22
BRANCH  20  24
ATOM     24  O   UNL     1     -16.521  -0.788  26.385  0.00  0.00    -0.201 OA
BRANCH  24  25
ATOM     25  P   UNL     1     -15.839  -2.088  27.186  0.00  0.00    +0.480 P 
ATOM     26  O   UNL     1     -14.799  -2.811  26.388  0.00  0.00    -0.227 OA
BRANCH  25  27
ATOM     27  O   UNL     1     -17.085  -3.171  27.574  0.00  0.00    -0.302 OA
ATOM     28  H   UNL     1     -17.764  -2.711  28.092  0.00  0.00    +0.222 HD
ENDBRANCH  25  27
BRANCH  25  29
ATOM     29  O   UNL     1     -15.095  -1.611  28.650  0.00  0.00    -0.302 OA
ATOM     30  H   UNL     1     -15.738  -1.136  29.200  0.00  0.00    +0.222 HD
ENDBRANCH  25  29
ENDBRANCH  24  25
ENDBRANCH  20  24
ENDBRANCH  18  20
ENDBRANCH   1  18
TORSDOF 9
