REMARK  Name = =
REMARK  11 active torsions:
REMARK  status: ('A' for Active; 'I' for Inactive)
REMARK    1  A    between atoms: C_1  and  S_18
REMARK    2  A    between atoms: C_4  and  C_7
REMARK    3  A    between atoms: C_5  and  S_27
REMARK    4  A    between atoms: C_8  and  C_13
REMARK    5  A    between atoms: S_18  and  P_19
REMARK    6  A    between atoms: P_19  and  O_21
REMARK    7  A    between atoms: P_19  and  O_22
REMARK    8  A    between atoms: O_22  and  P_23
REMARK    9  A    between atoms: P_23  and  O_25
REMARK   10  A    between atoms: P_23  and  O_26
REMARK   11  A    between atoms: S_27  and  N_30
REMARK                            x       y       z     vdW  Elec       q    Type
REMARK                         _______ _______ _______ _____ _____    ______ ____
ROOT
ATOM      1  C   UNL     1     -15.307   1.078  25.053  0.00  0.00    +0.024 C 
ATOM      2  C   UNL     1     -14.230   1.877  24.830  0.00  0.00    +0.006 C 
ATOM      3  C   UNL     1     -13.144   1.777  25.667  0.00  0.00    +0.002 C 
ATOM      4  C   UNL     1     -13.097   0.880  26.750  0.00  0.00    +0.018 C 
ATOM      5  C   UNL     1     -14.183   0.071  26.977  0.00  0.00    +0.122 C 
ATOM      6  C   UNL     1     -15.274   0.199  26.105  0.00  0.00    +0.026 C 
ENDROOT
BRANCH   4   7
ATOM      7  C   UNL     1     -11.906   0.869  27.581  0.00  0.00    +0.001 C 
ATOM      8  C   UNL     1     -10.775   0.165  27.115  0.00  0.00    +0.027 C 
ATOM      9  C   UNL     1      -9.597   0.137  27.810  0.00  0.00    -0.000 C 
ATOM     10  C   UNL     1      -9.451   0.791  29.003  0.00  0.00    -0.000 C 
ATOM     11  C   UNL     1     -10.530   1.485  29.486  0.00  0.00    -0.000 C 
ATOM     12  C   UNL     1     -11.733   1.512  28.768  0.00  0.00    -0.000 C 
BRANCH   8  13
ATOM     13  C   UNL     1     -10.896  -0.544  25.827  0.00  0.00    +0.273 C 
ATOM     14  N   UNL     1      -9.781  -0.228  24.964  0.00  0.00    -0.124 NA
ATOM     15  N   UNL     1      -9.118  -1.266  24.751  0.00  0.00    -0.025 NA
ATOM     16  N   UNL     1      -9.706  -2.318  25.427  0.00  0.00    -0.025 NA
ATOM     17  N   UNL     1     -10.741  -1.956  26.069  0.00  0.00    -0.124 NA
ENDBRANCH   8  13
ENDBRANCH   4   7
BRANCH   5  18
ATOM     18  S   UNL     1     -14.273  -1.104  28.267  0.00  0.00    +0.057 S 
ATOM     19  O   UNL     1     -15.594  -1.873  28.254  0.00  0.00    -0.153 OA
ATOM     20  O   UNL     1     -13.992  -0.548  29.603  0.00  0.00    -0.153 OA
BRANCH  18  21
ATOM     21  N   UNL     1     -13.082  -2.358  27.933  0.00  0.00    -0.203 NA
ATOM     22  H   UNL     1     -12.149  -1.946  27.919  0.00  0.00    +0.144 HD
ATOM     23  H   UNL     1     -13.280  -2.782  27.027  0.00  0.00    +0.144 HD
ENDBRANCH  18  21
ENDBRANCH   5  18
BRANCH   1  24
ATOM     24  S   UNL     1     -16.772   1.104  24.052  0.00  0.00    -0.082 S 
ATOM     25  H   UNL     1     -16.447   0.986  22.737  0.00  0.00    +0.108 HD
BRANCH  24  26
ATOM     26  P   UNL     1     -17.617   2.811  24.385  0.00  0.00    +0.389 P 
ATOM     27  O   UNL     1     -17.637   2.875  25.904  0.00  0.00    -0.246 OA
BRANCH  26  28
ATOM     28  O   UNL     1     -19.170   2.694  23.757  0.00  0.00    -0.316 OA
ATOM     29  H   UNL     1     -19.652   1.988  24.216  0.00  0.00    +0.221 HD
ENDBRANCH  26  28
BRANCH  26  30
ATOM     30  O   UNL     1     -16.685   3.988  23.681  0.00  0.00    -0.201 OA
BRANCH  30  31
ATOM     31  P   UNL     1     -17.210   5.547  23.986  0.00  0.00    +0.480 P 
ATOM     32  O   UNL     1     -16.193   6.325  24.783  0.00  0.00    -0.227 OA
BRANCH  31  33
ATOM     33  O   UNL     1     -18.679   5.594  24.824  0.00  0.00    -0.302 OA
ATOM     34  H   UNL     1     -18.588   5.116  25.663  0.00  0.00    +0.222 HD
ENDBRANCH  31  33
BRANCH  31  35
ATOM     35  O   UNL     1     -17.433   6.393  22.538  0.00  0.00    -0.302 OA
ATOM     36  H   UNL     1     -16.607   6.387  22.029  0.00  0.00    +0.222 HD
ENDBRANCH  31  35
ENDBRANCH  30  31
ENDBRANCH  26  30
ENDBRANCH  24  26
ENDBRANCH   1  24
TORSDOF 11
