REMARK  Name = =
REMARK  2 active torsions:
REMARK  status: ('A' for Active; 'I' for Inactive)
REMARK    1  A    between atoms: C_1  and  C_16
REMARK    2  A    between atoms: N_14  and  C_20
REMARK                            x       y       z     vdW  Elec       q    Type
REMARK                         _______ _______ _______ _____ _____    ______ ____
ROOT
ATOM      1  C   UNL     1       3.927  -2.459  25.001  0.00  0.00    -0.004 C 
ATOM      2  C   UNL     1       3.497  -3.689  25.500  0.00  0.00    +0.012 C 
ATOM      3  C   UNL     1       2.439  -3.817  26.412  0.00  0.00    +0.057 C 
ATOM      4  C   UNL     1       1.851  -2.650  26.785  0.00  0.00    +0.043 C 
ATOM      5  C   UNL     1       2.240  -1.428  26.322  0.00  0.00    +0.007 C 
ATOM      6  C   UNL     1       3.271  -1.338  25.437  0.00  0.00    -0.002 C 
ATOM      7  S   UNL     1       0.489  -2.657  27.909  0.00  0.00    -0.084 S 
ATOM      8  C   UNL     1       0.415  -4.320  28.559  0.00  0.00    +0.043 C 
ATOM      9  C   UNL     1       1.151  -5.319  27.998  0.00  0.00    +0.058 C 
ATOM     10  C   UNL     1       0.965  -6.570  28.588  0.00  0.00    +0.015 C 
ATOM     11  C   UNL     1       0.100  -6.765  29.655  0.00  0.00    +0.001 C 
ATOM     12  C   UNL     1      -0.605  -5.722  30.167  0.00  0.00    +0.001 C 
ATOM     13  C   UNL     1      -0.449  -4.486  29.616  0.00  0.00    +0.008 C 
ATOM     14  N   UNL     1       2.149  -5.121  26.938  0.00  0.00    -0.287 N 
ENDROOT
BRANCH   1  16
ATOM     15  N   UNL     1       4.825  -3.289  22.899  0.00  0.00    -0.268 NA
ATOM     16  C   UNL     1       5.042  -2.437  24.050  0.00  0.00    +0.109 C 
ATOM     17  C   UNL     1       6.310  -3.051  24.639  0.00  0.00    +0.164 C 
ATOM     18  O   UNL     1       7.023  -3.338  23.474  0.00  0.00    -0.336 OA
ATOM     19  C   UNL     1       6.052  -4.057  22.745  0.00  0.00    +0.217 C 
ATOM     20  H   UNL     1       4.650  -2.726  22.067  0.00  0.00    +0.126 HD
ENDBRANCH   1  16
BRANCH  14  21
ATOM     21  C   UNL     1       2.643  -6.361  26.466  0.00  0.00    +0.085 C 
ATOM     22  C   UNL     1       3.972  -6.708  25.989  0.00  0.00    +0.028 C 
ATOM     23  C   UNL     1       3.732  -8.043  25.178  0.00  0.00    +0.066 C 
ATOM     24  C   UNL     1       2.339  -7.885  24.747  0.00  0.00    +0.152 C 
ATOM     25  O   UNL     1       1.673  -8.772  24.245  0.00  0.00    -0.296 OA
ATOM     26  C   UNL     1       1.963  -6.495  25.045  0.00  0.00    +0.085 C 
ENDBRANCH  14  21
TORSDOF 2
