REMARK  Name = =
REMARK  12 active torsions:
REMARK  status: ('A' for Active; 'I' for Inactive)
REMARK    1  A    between atoms: C_1  and  S_18
REMARK    2  A    between atoms: C_4  and  C_7
REMARK    3  A    between atoms: C_5  and  S_34
REMARK    4  A    between atoms: C_8  and  C_13
REMARK    5  A    between atoms: S_18  and  P_19
REMARK    6  A    between atoms: P_19  and  O_21
REMARK    7  A    between atoms: P_19  and  O_26
REMARK    8  A    between atoms: O_21  and  P_22
REMARK    9  A    between atoms: P_22  and  O_24
REMARK   10  A    between atoms: P_22  and  O_25
REMARK   11  A    between atoms: O_26  and  C_27
REMARK   12  A    between atoms: S_34  and  N_37
REMARK                            x       y       z     vdW  Elec       q    Type
REMARK                         _______ _______ _______ _____ _____    ______ ____
ROOT
ATOM      1  C   UNL     1     -13.392   3.164  26.579  0.00  0.00    +0.024 C 
ATOM      2  C   UNL     1     -13.787   2.531  25.435  0.00  0.00    +0.006 C 
ATOM      3  C   UNL     1     -13.799   1.165  25.338  0.00  0.00    +0.002 C 
ATOM      4  C   UNL     1     -13.403   0.372  26.418  0.00  0.00    +0.018 C 
ATOM      5  C   UNL     1     -13.001   0.986  27.576  0.00  0.00    +0.122 C 
ATOM      6  C   UNL     1     -13.002   2.375  27.637  0.00  0.00    +0.026 C 
ENDROOT
BRANCH   4   7
ATOM      7  C   UNL     1     -13.483  -1.062  26.208  0.00  0.00    +0.001 C 
ATOM      8  C   UNL     1     -12.413  -1.682  25.599  0.00  0.00    +0.027 C 
ATOM      9  C   UNL     1     -12.473  -3.030  25.360  0.00  0.00    -0.000 C 
ATOM     10  C   UNL     1     -13.557  -3.810  25.695  0.00  0.00    -0.000 C 
ATOM     11  C   UNL     1     -14.608  -3.160  26.300  0.00  0.00    -0.000 C 
ATOM     12  C   UNL     1     -14.576  -1.797  26.556  0.00  0.00    -0.000 C 
BRANCH   8  13
ATOM     13  C   UNL     1     -11.209  -0.935  25.204  0.00  0.00    +0.273 C 
ATOM     14  N   UNL     1     -10.054  -1.588  25.786  0.00  0.00    -0.124 NA
ATOM     15  N   UNL     1      -9.311  -1.943  24.821  0.00  0.00    -0.025 NA
ATOM     16  N   UNL     1      -9.857  -1.586  23.592  0.00  0.00    -0.025 NA
ATOM     17  N   UNL     1     -10.949  -1.004  23.786  0.00  0.00    -0.124 NA
ENDBRANCH   8  13
ENDBRANCH   4   7
BRANCH   5  18
ATOM     18  S   UNL     1     -12.483   0.081  28.951  0.00  0.00    +0.057 S 
ATOM     19  O   UNL     1     -13.461  -0.861  29.529  0.00  0.00    -0.153 OA
ATOM     20  O   UNL     1     -12.186   1.118  30.056  0.00  0.00    -0.153 OA
BRANCH  18  21
ATOM     21  N   UNL     1     -10.946  -0.682  28.668  0.00  0.00    -0.203 NA
ATOM     22  H   UNL     1     -11.047  -1.392  27.942  0.00  0.00    +0.144 HD
ATOM     23  H   UNL     1     -10.620  -1.120  29.529  0.00  0.00    +0.144 HD
ENDBRANCH  18  21
ENDBRANCH   5  18
BRANCH   1  24
ATOM     24  S   UNL     1     -13.374   4.934  26.678  0.00  0.00    -0.081 S 
ATOM     25  H   UNL     1     -12.725   5.464  25.607  0.00  0.00    +0.108 HD
BRANCH  24  26
ATOM     26  P   UNL     1     -15.232   5.468  26.675  0.00  0.00    +0.393 P 
ATOM     27  O   UNL     1     -15.948   4.220  27.076  0.00  0.00    -0.246 OA
BRANCH  26  28
ATOM     28  O   UNL     1     -15.508   6.609  27.896  0.00  0.00    -0.201 OA
BRANCH  28  29
ATOM     29  P   UNL     1     -15.432   5.819  29.381  0.00  0.00    +0.480 P 
ATOM     30  O   UNL     1     -14.146   5.043  29.554  0.00  0.00    -0.227 OA
BRANCH  29  31
ATOM     31  O   UNL     1     -15.571   6.986  30.618  0.00  0.00    -0.302 OA
ATOM     32  H   UNL     1     -14.858   7.637  30.530  0.00  0.00    +0.222 HD
ENDBRANCH  29  31
BRANCH  29  33
ATOM     33  O   UNL     1     -16.686   4.704  29.564  0.00  0.00    -0.302 OA
ATOM     34  H   UNL     1     -16.624   4.031  28.868  0.00  0.00    +0.222 HD
ENDBRANCH  29  33
ENDBRANCH  28  29
ENDBRANCH  26  28
BRANCH  26  35
ATOM     35  O   UNL     1     -15.735   5.991  25.193  0.00  0.00    -0.285 OA
BRANCH  35  36
ATOM     36  C   UNL     1     -14.764   6.433  24.324  0.00  0.00    +0.147 C 
ATOM     37  C   UNL     1     -15.007   5.929  22.930  0.00  0.00    +0.043 C 
ATOM     38  C   UNL     1     -13.698   6.087  22.171  0.00  0.00    +0.072 C 
ATOM     39  C   UNL     1     -13.312   7.521  22.323  0.00  0.00    +0.173 C 
ATOM     40  O   UNL     1     -12.337   7.921  21.609  0.00  0.00    -0.291 OA
ATOM     41  C   UNL     1     -14.010   8.422  23.236  0.00  0.00    +0.035 C 
ATOM     42  C   UNL     1     -14.733   7.929  24.232  0.00  0.00    +0.006 C 
ENDBRANCH  35  36
ENDBRANCH  26  35
ENDBRANCH  24  26
ENDBRANCH   1  24
TORSDOF 12
