REMARK  Name = =
REMARK  5 active torsions:
REMARK  status: ('A' for Active; 'I' for Inactive)
REMARK    1  A    between atoms: C_1  and  O_20
REMARK    2  A    between atoms: C_5  and  C_16
REMARK    3  A    between atoms: C_10  and  O_19
REMARK    4  A    between atoms: C_16  and  O_18
REMARK    5  A    between atoms: O_20  and  C_21
REMARK                            x       y       z     vdW  Elec       q    Type
REMARK                         _______ _______ _______ _____ _____    ______ ____
ROOT
ATOM      1  C   UNL     1     -12.784 -43.723  30.770  0.00  0.00    +0.143 C 
ATOM      2  C   UNL     1     -11.397 -43.711  30.974  0.00  0.00    +0.069 C 
ATOM      3  C   UNL     1     -10.517 -44.167  30.051  0.00  0.00    -0.012 C 
ATOM      4  C   UNL     1     -11.029 -44.669  28.848  0.00  0.00    +0.003 C 
ATOM      5  C   UNL     1     -12.387 -44.699  28.611  0.00  0.00    +0.078 C 
ATOM      6  C   UNL     1     -13.266 -44.229  29.568  0.00  0.00    +0.043 C 
ATOM      7  C   UNL     1      -9.053 -44.168  30.229  0.00  0.00    +0.053 C 
ATOM      8  C   UNL     1      -8.623 -43.619  31.526  0.00  0.00    -0.012 C 
ATOM      9  C   UNL     1      -9.465 -43.137  32.512  0.00  0.00    +0.069 C 
ATOM     10  C   UNL     1      -8.942 -42.641  33.703  0.00  0.00    +0.136 C 
ATOM     11  C   UNL     1      -7.553 -42.626  33.909  0.00  0.00    +0.037 C 
ATOM     12  C   UNL     1      -6.745 -43.107  32.923  0.00  0.00    +0.003 C 
ATOM     13  C   UNL     1      -7.241 -43.601  31.740  0.00  0.00    -0.004 C 
ATOM     14  C   UNL     1     -10.884 -43.179  32.241  0.00  0.00    +0.201 C 
ATOM     15  O   UNL     1     -11.693 -42.751  33.111  0.00  0.00    -0.286 OA
ENDROOT
BRANCH   5  16
ATOM     16  C   UNL     1     -12.936 -45.221  27.359  0.00  0.00    +0.338 C 
ATOM     17  O   UNL     1     -13.887 -44.645  26.782  0.00  0.00    -0.245 OA
BRANCH  16  18
ATOM     18  O   UNL     1     -12.437 -46.366  26.755  0.00  0.00    -0.477 OA
ATOM     19  H   UNL     1     -11.726 -46.832  27.149  0.00  0.00    +0.295 HD
ENDBRANCH  16  18
ENDBRANCH   5  16
BRANCH  10  20
ATOM     20  O   UNL     1      -9.727 -42.156  34.704  0.00  0.00    -0.505 OA
ATOM     21  H   UNL     1     -10.659 -42.148  34.607  0.00  0.00    +0.292 HD
ENDBRANCH  10  20
BRANCH   1  22
ATOM     22  O   UNL     1     -13.567 -43.240  31.769  0.00  0.00    -0.464 OA
BRANCH  22  23
ATOM     23  C   UNL     1     -13.976 -41.952  32.052  0.00  0.00    +0.227 C 
ATOM     24  N   UNL     1     -15.429 -41.995  32.278  0.00  0.00    -0.251 NA
ATOM     25  C   UNL     1     -15.871 -40.748  32.870  0.00  0.00    +0.145 C 
ATOM     26  N   UNL     1     -15.533 -40.810  34.281  0.00  0.00    -0.284 NA
ATOM     27  C   UNL     1     -14.263 -41.472  34.497  0.00  0.00    +0.075 C 
ATOM     28  C   UNL     1     -13.347 -41.377  33.303  0.00  0.00    +0.078 C 
ATOM     29  H   UNL     1     -15.651 -42.766  32.908  0.00  0.00    +0.128 HD
ATOM     30  H   UNL     1     -16.263 -41.325  34.774  0.00  0.00    +0.125 HD
ENDBRANCH  22  23
ENDBRANCH   1  22
TORSDOF 5
