REMARK  Name = =
REMARK  1 active torsions:
REMARK  status: ('A' for Active; 'I' for Inactive)
REMARK    1  A    between atoms: C_1  and  C_18
REMARK                            x       y       z     vdW  Elec       q    Type
REMARK                         _______ _______ _______ _____ _____    ______ ____
ROOT
ATOM      1  C   UNL     1     -16.059 -42.773  27.153  0.00  0.00    +0.036 C 
ATOM      2  C   UNL     1     -15.198 -42.552  26.133  0.00  0.00    +0.131 C 
ATOM      3  N   UNL     1     -13.843 -42.854  26.338  0.00  0.00    -0.216 NA
ATOM      4  C   UNL     1     -13.400 -43.345  27.497  0.00  0.00    +0.137 C 
ATOM      5  C   UNL     1     -14.263 -43.586  28.534  0.00  0.00    +0.071 C 
ATOM      6  C   UNL     1     -15.612 -43.300  28.376  0.00  0.00    +0.007 C 
ATOM      7  C   UNL     1     -13.799 -44.093  29.719  0.00  0.00    +0.200 C 
ATOM      8  O   UNL     1     -14.645 -44.302  30.649  0.00  0.00    -0.286 OA
ATOM      9  C   UNL     1     -12.453 -44.361  29.873  0.00  0.00    +0.058 C 
ATOM     10  C   UNL     1     -11.650 -44.085  28.794  0.00  0.00    +0.066 C 
ATOM     11  N   UNL     1     -12.075 -43.592  27.622  0.00  0.00    -0.297 N 
ATOM     12  N   UNL     1     -15.540 -42.068  24.873  0.00  0.00    -0.290 N 
ATOM     13  C   UNL     1     -16.050 -40.820  24.438  0.00  0.00    +0.111 C 
ATOM     14  C   UNL     1     -15.060 -40.385  23.314  0.00  0.00    +0.110 C 
ATOM     15  N   UNL     1     -15.409 -41.188  22.184  0.00  0.00    -0.214 NA
ATOM     16  C   UNL     1     -15.732 -42.555  22.445  0.00  0.00    +0.110 C 
ATOM     17  C   UNL     1     -15.289 -43.045  23.777  0.00  0.00    +0.111 C 
ATOM     18  H   UNL     1     -11.449 -43.417  26.883  0.00  0.00    +0.154 HD
ENDROOT
BRANCH   1  19
ATOM     19  C   UNL     1     -17.509 -42.524  27.052  0.00  0.00    +0.140 C 
ATOM     20  O   UNL     1     -18.087 -42.564  25.845  0.00  0.00    -0.352 OA
ATOM     21  C   UNL     1     -19.124 -41.672  25.687  0.00  0.00    +0.143 C 
ATOM     22  C   UNL     1     -20.017 -41.545  26.900  0.00  0.00    +0.032 C 
ATOM     23  C   UNL     1     -19.247 -41.063  28.094  0.00  0.00    +0.005 C 
ATOM     24  C   UNL     1     -17.783 -41.302  27.900  0.00  0.00    +0.034 C 
ENDBRANCH   1  19
TORSDOF 1
