REMARK  Name = =
REMARK  0 active torsions:
REMARK  status: ('A' for Active; 'I' for Inactive)
REMARK                            x       y       z     vdW  Elec       q    Type
REMARK                         _______ _______ _______ _____ _____    ______ ____
ROOT
ATOM      1  C   UNL     1     -13.552 -42.819  32.191  0.00  0.00    +0.056 C 
ATOM      2  C   UNL     1     -12.216 -42.630  32.387  0.00  0.00    +0.134 C 
ATOM      3  N   UNL     1     -11.795 -41.794  33.408  0.00  0.00    -0.216 NA
ATOM      4  C   UNL     1     -12.608 -41.144  34.238  0.00  0.00    +0.137 C 
ATOM      5  C   UNL     1     -13.948 -41.305  34.075  0.00  0.00    +0.071 C 
ATOM      6  C   UNL     1     -14.410 -42.137  33.059  0.00  0.00    +0.009 C 
ATOM      7  C   UNL     1     -14.838 -40.649  34.910  0.00  0.00    +0.200 C 
ATOM      8  O   UNL     1     -16.057 -40.815  34.738  0.00  0.00    -0.286 OA
ATOM      9  C   UNL     1     -14.297 -39.848  35.885  0.00  0.00    +0.058 C 
ATOM     10  C   UNL     1     -12.934 -39.697  36.034  0.00  0.00    +0.066 C 
ATOM     11  N   UNL     1     -12.096 -40.341  35.215  0.00  0.00    -0.297 N 
ATOM     12  N   UNL     1     -11.198 -43.209  31.589  0.00  0.00    -0.279 N 
ATOM     13  C   UNL     1     -10.814 -44.571  31.812  0.00  0.00    +0.112 C 
ATOM     14  C   UNL     1      -9.270 -44.583  32.011  0.00  0.00    +0.110 C 
ATOM     15  N   UNL     1      -8.783 -43.209  32.120  0.00  0.00    -0.213 NA
ATOM     16  C   UNL     1      -8.956 -42.603  30.807  0.00  0.00    +0.125 C 
ATOM     17  C   UNL     1     -10.463 -42.477  30.595  0.00  0.00    +0.153 C 
ATOM     18  N   UNL     1     -10.864 -42.604  29.231  0.00  0.00    -0.252 NA
ATOM     19  C   UNL     1     -10.471 -43.857  28.648  0.00  0.00    +0.088 C 
ATOM     20  C   UNL     1     -11.556 -44.839  28.381  0.00  0.00    +0.080 C 
ATOM     21  C   UNL     1     -12.560 -44.132  27.519  0.00  0.00    -0.014 C 
ATOM     22  C   UNL     1     -12.853 -42.827  27.799  0.00  0.00    -0.009 C 
ATOM     23  C   UNL     1     -12.191 -42.164  28.948  0.00  0.00    +0.100 C 
ATOM     24  C   UNL     1     -13.752 -42.148  27.031  0.00  0.00    -0.003 C 
ATOM     25  C   UNL     1     -14.393 -42.759  25.950  0.00  0.00    -0.000 C 
ATOM     26  C   UNL     1     -14.067 -44.072  25.709  0.00  0.00    -0.000 C 
ATOM     27  C   UNL     1     -13.151 -44.777  26.483  0.00  0.00    -0.004 C 
ATOM     28  C   UNL     1     -14.162 -43.667  31.166  0.00  0.00    +0.204 C 
ATOM     29  O   UNL     1     -13.561 -43.392  29.920  0.00  0.00    -0.334 OA
ATOM     30  C   UNL     1     -14.349 -43.732  28.856  0.00  0.00    +0.145 C 
ATOM     31  C   UNL     1     -15.445 -42.688  28.627  0.00  0.00    +0.032 C 
ATOM     32  C   UNL     1     -15.798 -42.154  30.026  0.00  0.00    +0.007 C 
ATOM     33  C   UNL     1     -15.646 -43.312  30.952  0.00  0.00    +0.056 C 
ATOM     34  C   UNL     1     -13.241 -45.981  30.994  0.00  0.00    +0.201 A 
ATOM     35  N   UNL     1     -14.178 -45.089  31.429  0.00  0.00    -0.184 N 
ATOM     36  N   UNL     1     -15.004 -45.839  32.135  0.00  0.00    -0.040 NA
ATOM     37  N   UNL     1     -14.649 -47.088  32.161  0.00  0.00    -0.022 NA
ATOM     38  N   UNL     1     -13.548 -47.207  31.455  0.00  0.00    -0.102 NA
ATOM     39  S   UNL     1     -11.842 -45.574  29.980  0.00  0.00    -0.140 S 
ATOM     40  H   UNL     1     -11.122 -40.237  35.316  0.00  0.00    +0.154 HD
ATOM     41  H   UNL     1     -11.118 -44.766  30.801  0.00  0.00    +0.100 HD
ENDROOT
TORSDOF 0
