REMARK  Name = =
REMARK  8 active torsions:
REMARK  status: ('A' for Active; 'I' for Inactive)
REMARK    1  A    between atoms: C_1  and  C_18
REMARK    2  A    between atoms: C_7  and  C_28
REMARK    3  A    between atoms: C_18  and  C_20
REMARK    4  A    between atoms: C_19  and  C_25
REMARK    5  A    between atoms: C_21  and  C_22
REMARK    6  A    between atoms: C_22  and  O_24
REMARK    7  A    between atoms: C_25  and  O_27
REMARK    8  A    between atoms: C_28  and  O_30
REMARK                            x       y       z     vdW  Elec       q    Type
REMARK                         _______ _______ _______ _____ _____    ______ ____
ROOT
ATOM      1  C   UNL     1      54.917 159.782  29.105  0.00  0.00    +0.019 C 
ATOM      2  C   UNL     1      53.997 159.059  28.138  0.00  0.00    +0.008 C 
ATOM      3  C   UNL     1      52.963 158.255  28.821  0.00  0.00    +0.005 C 
ATOM      4  C   UNL     1      52.318 157.373  27.772  0.00  0.00    +0.022 C 
ATOM      5  C   UNL     1      51.026 156.775  28.158  0.00  0.00    +0.009 C 
ATOM      6  C   UNL     1      51.060 155.333  28.498  0.00  0.00    +0.033 C 
ATOM      7  C   UNL     1      52.039 154.511  27.799  0.00  0.00    +0.053 C 
ATOM      8  C   UNL     1      53.105 155.035  27.231  0.00  0.00    -0.002 C 
ATOM      9  C   UNL     1      53.332 156.456  27.289  0.00  0.00    -0.027 C 
ATOM     10  C   UNL     1      54.493 156.953  26.894  0.00  0.00    -0.030 C 
ATOM     11  C   UNL     1      54.679 158.444  26.975  0.00  0.00    +0.026 C 
ATOM     12  C   UNL     1      53.423 157.477  30.016  0.00  0.00    +0.000 C 
ATOM     13  C   UNL     1      54.908 157.508  30.221  0.00  0.00    +0.000 C 
ATOM     14  C   UNL     1      55.535 158.838  30.027  0.00  0.00    +0.004 C 
ATOM     15  C   UNL     1      55.734 159.597  31.323  0.00  0.00    +0.000 C 
ATOM     16  C   UNL     1      54.543 160.493  31.415  0.00  0.00    +0.000 C 
ATOM     17  C   UNL     1      54.045 160.668  29.980  0.00  0.00    +0.004 C 
ENDROOT
BRANCH   1  18
ATOM     18  C   UNL     1      55.807 160.631  28.283  0.00  0.00    -0.016 C 
ATOM     19  C   UNL     1      56.008 161.906  28.700  0.00  0.00    +0.077 C 
BRANCH  18  20
ATOM     20  C   UNL     1      56.597 160.294  27.140  0.00  0.00    +0.003 C 
ATOM     21  C   UNL     1      57.698 160.403  26.594  0.00  0.00    +0.081 C 
BRANCH  21  22
ATOM     22  C   UNL     1      58.998 160.955  26.734  0.00  0.00    +0.338 C 
ATOM     23  O   UNL     1      60.102 160.428  26.909  0.00  0.00    -0.245 OA
BRANCH  22  24
ATOM     24  O   UNL     1      59.110 162.397  26.666  0.00  0.00    -0.477 OA
ATOM     25  H   UNL     1      58.344 162.921  26.536  0.00  0.00    +0.295 HD
ENDBRANCH  22  24
ENDBRANCH  21  22
ENDBRANCH  18  20
BRANCH  19  26
ATOM     26  C   UNL     1      55.436 162.617  29.760  0.00  0.00    +0.338 C 
ATOM     27  O   UNL     1      55.836 162.905  30.896  0.00  0.00    -0.245 OA
BRANCH  26  28
ATOM     28  O   UNL     1      54.086 163.139  29.506  0.00  0.00    -0.477 OA
ATOM     29  H   UNL     1      53.673 162.986  28.679  0.00  0.00    +0.295 HD
ENDBRANCH  26  28
ENDBRANCH  19  26
ENDBRANCH   1  18
BRANCH   7  30
ATOM     30  C   UNL     1      51.833 153.044  27.725  0.00  0.00    +0.334 C 
ATOM     31  O   UNL     1      51.745 152.331  28.757  0.00  0.00    -0.245 OA
BRANCH  30  32
ATOM     32  O   UNL     1      51.734 152.430  26.497  0.00  0.00    -0.477 OA
ATOM     33  H   UNL     1      51.796 152.939  25.713  0.00  0.00    +0.295 HD
ENDBRANCH  30  32
ENDBRANCH   7  30
TORSDOF 8
