REMARK  Name = =
REMARK  0 active torsions:
REMARK  status: ('A' for Active; 'I' for Inactive)
REMARK                            x       y       z     vdW  Elec       q    Type
REMARK                         _______ _______ _______ _____ _____    ______ ____
ROOT
ATOM      1  C   UNL     1      -2.834  -4.589  31.045  0.00  0.00    +0.044 C 
ATOM      2  C   UNL     1      -2.287  -5.351  29.892  0.00  0.00    -0.026 C 
ATOM      3  C   UNL     1      -1.663  -4.539  28.821  0.00  0.00    -0.026 C 
ATOM      4  C   UNL     1      -1.740  -3.051  29.013  0.00  0.00    +0.051 C 
ATOM      5  C   UNL     1      -2.954  -2.616  29.715  0.00  0.00    -0.025 C 
ATOM      6  C   UNL     1      -3.495  -3.327  30.683  0.00  0.00    -0.023 C 
ATOM      7  C   UNL     1      -4.697  -2.915  31.389  0.00  0.00    -0.009 C 
ATOM      8  C   UNL     1      -5.171  -3.557  32.439  0.00  0.00    -0.026 C 
ATOM      9  C   UNL     1      -4.475  -4.741  32.941  0.00  0.00    +0.027 C 
ATOM     10  C   UNL     1      -3.671  -5.481  31.908  0.00  0.00    +0.013 C 
ENDROOT
TORSDOF 0
