REMARK  Name = =
REMARK  3 active torsions:
REMARK  status: ('A' for Active; 'I' for Inactive)
REMARK    1  A    between atoms: C_4  and  N_11
REMARK    2  A    between atoms: N_11  and  O_12
REMARK    3  A    between atoms: N_11  and  O_13
REMARK                            x       y       z     vdW  Elec       q    Type
REMARK                         _______ _______ _______ _____ _____    ______ ____
ROOT
ATOM      1  C   UNL     1      -2.888  -4.996  30.645  0.00  0.00    +0.022 C 
ATOM      2  C   UNL     1      -1.805  -6.014  30.698  0.00  0.00    +0.006 C 
ATOM      3  C   UNL     1      -1.024  -5.878  29.384  0.00  0.00    +0.026 C 
ATOM      4  C   UNL     1      -0.199  -4.621  29.514  0.00  0.00    +0.134 C 
ATOM      5  C   UNL     1      -1.158  -3.498  29.734  0.00  0.00    -0.010 C 
ATOM      6  C   UNL     1      -2.362  -3.672  30.241  0.00  0.00    -0.026 C 
ATOM      7  C   UNL     1      -3.269  -2.543  30.439  0.00  0.00    -0.009 C 
ATOM      8  C   UNL     1      -4.440  -2.721  31.026  0.00  0.00    -0.026 C 
ATOM      9  C   UNL     1      -4.922  -4.030  31.517  0.00  0.00    +0.026 C 
ATOM     10  C   UNL     1      -3.668  -4.831  31.901  0.00  0.00    +0.009 C 
ENDROOT
BRANCH   4  11
ATOM     11  N   UNL     1       0.570  -4.418  28.284  0.00  0.00    -0.056 NA
BRANCH  11  12
ATOM     12  O   UNL     1       1.159  -3.194  28.366  0.00  0.00    -0.288 OA
ATOM     13  H   UNL     1       1.813  -3.197  29.083  0.00  0.00    +0.239 HD
ENDBRANCH  11  12
BRANCH  11  14
ATOM     14  O   UNL     1      -0.358  -4.433  27.276  0.00  0.00    -0.288 OA
ATOM     15  H   UNL     1      -0.770  -5.310  27.229  0.00  0.00    +0.239 HD
ENDBRANCH  11  14
ENDBRANCH   4  11
TORSDOF 3
