REMARK  Name = =
REMARK  7 active torsions:
REMARK  status: ('A' for Active; 'I' for Inactive)
REMARK    1  A    between atoms: C_1  and  P_11
REMARK    2  A    between atoms: C_4  and  N_16
REMARK    3  A    between atoms: P_11  and  O_13
REMARK    4  A    between atoms: P_11  and  O_15
REMARK    5  A    between atoms: O_12  and  O_14
REMARK    6  A    between atoms: N_16  and  O_17
REMARK    7  A    between atoms: N_16  and  O_18
REMARK                            x       y       z     vdW  Elec       q    Type
REMARK                         _______ _______ _______ _____ _____    ______ ____
ROOT
ATOM      1  C   UNL     1       0.399  -5.217  30.016  0.00  0.00    +0.081 C 
ATOM      2  C   UNL     1      -0.951  -5.564  30.651  0.00  0.00    +0.014 C 
ATOM      3  C   UNL     1      -1.184  -7.041  30.409  0.00  0.00    +0.026 C 
ATOM      4  C   UNL     1      -1.633  -7.151  28.973  0.00  0.00    +0.134 C 
ATOM      5  C   UNL     1      -0.572  -6.506  28.145  0.00  0.00    -0.009 C 
ATOM      6  C   UNL     1       0.315  -5.660  28.607  0.00  0.00    -0.018 C 
ATOM      7  C   UNL     1       1.282  -5.098  27.662  0.00  0.00    -0.009 C 
ATOM      8  C   UNL     1       2.022  -4.035  27.965  0.00  0.00    -0.026 C 
ATOM      9  C   UNL     1       1.874  -3.397  29.283  0.00  0.00    +0.027 C 
ATOM     10  C   UNL     1       0.579  -3.716  29.937  0.00  0.00    +0.017 C 
ENDROOT
BRANCH   1  11
ATOM     11  P   UNL     1       1.672  -5.974  30.999  0.00  0.00    +0.179 P 
BRANCH  11  12
ATOM     12  O   UNL     1       1.282  -7.009  32.270  0.00  0.00    -0.349 OA
ATOM     13  H   UNL     1       0.896  -6.496  32.998  0.00  0.00    +0.217 HD
ENDBRANCH  11  12
BRANCH  11  14
ATOM     14  O   UNL     1       2.319  -7.057  29.855  0.00  0.00    -0.349 OA
ATOM     15  H   UNL     1       2.586  -6.568  29.061  0.00  0.00    +0.217 HD
ENDBRANCH  11  14
ENDBRANCH   1  11
BRANCH   4  16
ATOM     16  N   UNL     1      -1.887  -8.514  28.571  0.00  0.00    -0.056 NA
BRANCH  16  17
ATOM     17  O   UNL     1      -0.894  -9.287  29.072  0.00  0.00    -0.288 OA
ATOM     18  H   UNL     1      -0.932  -9.274  30.041  0.00  0.00    +0.239 HD
ENDBRANCH  16  17
BRANCH  16  19
ATOM     19  O   UNL     1      -1.779  -8.574  27.223  0.00  0.00    -0.288 OA
ATOM     20  H   UNL     1      -2.474  -8.032  26.818  0.00  0.00    +0.239 HD
ENDBRANCH  16  19
ENDBRANCH   4  16
TORSDOF 6
REMARK  Name = =
REMARK  7 active torsions:
REMARK  status: ('A' for Active; 'I' for Inactive)
REMARK    1  A    between atoms: C_1  and  P_11
REMARK    2  A    between atoms: C_4  and  N_16
REMARK    3  A    between atoms: P_11  and  O_13
REMARK    4  A    between atoms: P_11  and  O_15
REMARK    5  A    between atoms: O_12  and  O_14
REMARK    6  A    between atoms: N_16  and  O_17
REMARK    7  A    between atoms: N_16  and  O_18
REMARK                            x       y       z     vdW  Elec       q    Type
REMARK                         _______ _______ _______ _____ _____    ______ ____
ROOT
ATOM      1  O   UNL     1       1.740  -4.797  31.981  0.00  0.00    -0.253 OA
ATOM      2  H   UNL     1       1.083  -5.425  31.642  0.00  0.00    +0.253 HD
ENDROOT
BRANCH   1   3
ATOM      3  O   UNL     1       3.076  -5.190  31.518  0.00  0.00    -0.253 OA
ATOM      4  H   UNL     1       3.733  -4.562  31.857  0.00  0.00    +0.253 HD
ENDBRANCH   1   3
TORSDOF 1
