REMARK  Name = =
REMARK  5 active torsions:
REMARK  status: ('A' for Active; 'I' for Inactive)
REMARK    1  A    between atoms: C_3  and  C_11
REMARK    2  A    between atoms: C_4  and  N_24
REMARK    3  A    between atoms: O_20  and  O_21
REMARK    4  A    between atoms: N_24  and  O_25
REMARK    5  A    between atoms: N_24  and  O_26
REMARK                            x       y       z     vdW  Elec       q    Type
REMARK                         _______ _______ _______ _____ _____    ______ ____
ROOT
ATOM      1  C   UNL     1       0.042  -5.797  28.815  0.00  0.00    +0.005 C 
ATOM      2  C   UNL     1       0.279  -4.810  27.694  0.00  0.00    +0.011 C 
ATOM      3  C   UNL     1       1.789  -4.643  27.739  0.00  0.00    +0.096 C 
ATOM      4  C   UNL     1       2.155  -3.787  28.844  0.00  0.00    +0.121 C 
ATOM      5  C   UNL     1       1.945  -4.701  30.087  0.00  0.00    +0.026 C 
ATOM      6  C   UNL     1       0.910  -5.611  29.956  0.00  0.00    +0.023 C 
ATOM      7  C   UNL     1       0.725  -6.471  31.121  0.00  0.00    -0.031 C 
ATOM      8  C   UNL     1      -0.555  -6.903  31.332  0.00  0.00    -0.031 C 
ATOM      9  C   UNL     1      -1.670  -6.534  30.465  0.00  0.00    +0.026 C 
ATOM     10  C   UNL     1      -1.425  -5.944  29.132  0.00  0.00    +0.005 C 
ENDROOT
BRANCH   3  11
ATOM     11  C   UNL     1       2.235  -4.455  26.353  0.00  0.00    +0.230 C 
ATOM     12  O   UNL     1       1.815  -4.317  25.378  0.00  0.00    -0.275 OA
ATOM     13  N   UNL     1       4.021  -4.516  26.393  0.00  0.00    -0.239 N 
ATOM     14  C   UNL     1       4.235  -4.729  25.046  0.00  0.00    +0.313 C 
ATOM     15  O   UNL     1       3.483  -4.412  24.161  0.00  0.00    -0.252 OA
ATOM     16  N   UNL     1       5.356  -5.379  24.401  0.00  0.00    -0.232 N 
ATOM     17  C   UNL     1       6.614  -5.677  24.896  0.00  0.00    +0.307 C 
ATOM     18  O   UNL     1       6.947  -5.615  26.027  0.00  0.00    -0.265 OA
ATOM     19  H   UNL     1       4.654  -4.426  27.142  0.00  0.00    +0.159 HD
ATOM     20  H   UNL     1       5.200  -5.651  23.468  0.00  0.00    +0.160 HD
ENDBRANCH   3  11
BRANCH   4  21
ATOM     21  N   UNL     1       1.392  -2.641  29.147  0.00  0.00    -0.060 NA
BRANCH  21  22
ATOM     22  O   UNL     1       2.161  -1.552  29.083  0.00  0.00    -0.288 OA
ATOM     23  H   UNL     1       3.023  -1.741  29.485  0.00  0.00    +0.239 HD
ENDBRANCH  21  22
BRANCH  21  24
ATOM     24  O   UNL     1       0.219  -2.462  28.626  0.00  0.00    -0.288 OA
ATOM     25  H   UNL     1      -0.296  -3.281  28.699  0.00  0.00    +0.239 HD
ENDBRANCH  21  24
ENDBRANCH   4  21
TORSDOF 4
REMARK  Name = =
REMARK  5 active torsions:
REMARK  status: ('A' for Active; 'I' for Inactive)
REMARK    1  A    between atoms: C_3  and  C_11
REMARK    2  A    between atoms: C_4  and  N_24
REMARK    3  A    between atoms: O_20  and  O_21
REMARK    4  A    between atoms: N_24  and  O_25
REMARK    5  A    between atoms: N_24  and  O_26
REMARK                            x       y       z     vdW  Elec       q    Type
REMARK                         _______ _______ _______ _____ _____    ______ ____
ROOT
ATOM      1  P   UNL     1       0.487  -7.356  28.028  0.00  0.00    +0.000 P 
ENDROOT
TORSDOF 0
REMARK  Name = =
REMARK  5 active torsions:
REMARK  status: ('A' for Active; 'I' for Inactive)
REMARK    1  A    between atoms: C_3  and  C_11
REMARK    2  A    between atoms: C_4  and  N_24
REMARK    3  A    between atoms: O_20  and  O_21
REMARK    4  A    between atoms: N_24  and  O_25
REMARK    5  A    between atoms: N_24  and  O_26
REMARK                            x       y       z     vdW  Elec       q    Type
REMARK                         _______ _______ _______ _____ _____    ______ ____
ROOT
ATOM      1  O   UNL     1       0.788  -8.166  26.838  0.00  0.00    -0.253 OA
ATOM      2  H   UNL     1       1.416  -8.613  26.249  0.00  0.00    +0.253 HD
ENDROOT
BRANCH   1   3
ATOM      3  O   UNL     1       0.554  -8.996  28.023  0.00  0.00    -0.253 OA
ATOM      4  H   UNL     1      -0.074  -8.549  28.612  0.00  0.00    +0.253 HD
ENDBRANCH   1   3
TORSDOF 1
REMARK  Name = =
REMARK  5 active torsions:
REMARK  status: ('A' for Active; 'I' for Inactive)
REMARK    1  A    between atoms: C_3  and  C_11
REMARK    2  A    between atoms: C_4  and  N_24
REMARK    3  A    between atoms: O_20  and  O_21
REMARK    4  A    between atoms: N_24  and  O_25
REMARK    5  A    between atoms: N_24  and  O_26
REMARK                            x       y       z     vdW  Elec       q    Type
REMARK                         _______ _______ _______ _____ _____    ______ ____
ROOT
ATOM      1  O   HOH     1      -0.655  -7.770  26.859  0.00  0.00    -0.253 OA
ATOM      2  H   HOH     0       0.315  -7.770  26.859  0.00  0.00    +0.253 HD
ENDROOT
TORSDOF 0
REMARK  Name = =
REMARK  5 active torsions:
REMARK  status: ('A' for Active; 'I' for Inactive)
REMARK    1  A    between atoms: C_3  and  C_11
REMARK    2  A    between atoms: C_4  and  N_24
REMARK    3  A    between atoms: O_20  and  O_21
REMARK    4  A    between atoms: N_24  and  O_25
REMARK    5  A    between atoms: N_24  and  O_26
REMARK                            x       y       z     vdW  Elec       q    Type
REMARK                         _______ _______ _______ _____ _____    ______ ____
ROOT
ATOM      1  O   HOH     1       2.003  -7.812  27.639  0.00  0.00    -0.253 OA
ATOM      2  H   HOH     0       2.973  -7.812  27.639  0.00  0.00    +0.253 HD
ENDROOT
TORSDOF 0
