REMARK  Name = =
REMARK  0 active torsions:
REMARK  status: ('A' for Active; 'I' for Inactive)
REMARK                            x       y       z     vdW  Elec       q    Type
REMARK                         _______ _______ _______ _____ _____    ______ ____
ROOT
ATOM      1  O   UNL     1      52.128 156.565  27.929  0.00  0.00    -0.473 OA
ATOM      2  C   UNL     1      52.879 155.590  27.293  0.00  0.00    +0.206 C 
ATOM      3  C   UNL     1      52.002 154.343  27.266  0.00  0.00    +0.052 C 
ATOM      4  C   UNL     1      51.724 153.899  28.665  0.00  0.00    +0.033 C 
ATOM      5  C   UNL     1      51.593 154.972  29.668  0.00  0.00    +0.014 C 
ATOM      6  C   UNL     1      51.931 156.341  29.267  0.00  0.00    +0.168 C 
ENDROOT
TORSDOF 0
