REMARK  Name = =
REMARK  1 active torsions:
REMARK  status: ('A' for Active; 'I' for Inactive)
REMARK    1  A    between atoms: C_1  and  N_11
REMARK                            x       y       z     vdW  Elec       q    Type
REMARK                         _______ _______ _______ _____ _____    ______ ____
ROOT
ATOM      1  C   UNL     1      49.034 161.094  18.086  0.00  0.00    +0.048 C 
ATOM      2  C   UNL     1      48.764 160.578  16.840  0.00  0.00    +0.017 C 
ATOM      3  C   UNL     1      49.341 161.132  15.691  0.00  0.00    +0.031 C 
ATOM      4  C   UNL     1      50.187 162.206  15.837  0.00  0.00    +0.140 C 
ATOM      5  C   UNL     1      50.484 162.755  17.091  0.00  0.00    +0.031 C 
ATOM      6  C   UNL     1      49.880 162.163  18.204  0.00  0.00    +0.017 C 
ATOM      7  F   UNL     1      50.746 162.739  14.720  0.00  0.00    -0.204 F 
ENDROOT
BRANCH   1  11
ATOM      8  N   UNL     1      47.222 159.472  21.602  0.00  0.00    -0.214 NA
ATOM      9  C   UNL     1      48.505 160.124  21.582  0.00  0.00    +0.110 C 
ATOM     10  C   UNL     1      49.194 159.821  20.254  0.00  0.00    +0.110 C 
ATOM     11  N   UNL     1      48.448 160.528  19.235  0.00  0.00    -0.305 N 
ATOM     12  C   UNL     1      46.998 160.631  19.461  0.00  0.00    +0.110 C 
ATOM     13  C   UNL     1      46.522 159.492  20.353  0.00  0.00    +0.110 C 
ENDBRANCH   1  11
TORSDOF 1
