REMARK  Name = =
REMARK  2 active torsions:
REMARK  status: ('A' for Active; 'I' for Inactive)
REMARK    1  A    between atoms: N_1  and  C_7
REMARK    2  A    between atoms: N_4  and  C_14
REMARK                            x       y       z     vdW  Elec       q    Type
REMARK                         _______ _______ _______ _____ _____    ______ ____
ROOT
ATOM      1  N   UNL     1      51.516 162.642  16.362  0.00  0.00    -0.237 NA
ATOM      2  C   UNL     1      50.219 162.446  16.924  0.00  0.00    +0.097 C 
ATOM      3  C   UNL     1      50.352 161.558  18.143  0.00  0.00    +0.108 C 
ATOM      4  N   UNL     1      51.466 161.999  18.981  0.00  0.00    -0.305 N 
ATOM      5  C   UNL     1      52.041 163.277  18.656  0.00  0.00    +0.108 C 
ATOM      6  C   UNL     1      52.397 163.406  17.175  0.00  0.00    +0.097 C 
ENDROOT
BRANCH   1   7
ATOM      7  C   UNL     1      51.469 163.047  14.981  0.00  0.00    +0.231 C 
ATOM      8  O   UNL     1      52.735 162.662  14.420  0.00  0.00    -0.436 OA
ATOM      9  C   UNL     1      53.844 163.402  14.794  0.00  0.00    +0.318 C 
ATOM     10  O   UNL     1      55.006 162.927  14.891  0.00  0.00    -0.250 OA
ATOM     11  C   UNL     1      53.653 164.842  15.099  0.00  0.00    +0.110 C 
ATOM     12  C   UNL     1      52.384 165.328  14.425  0.00  0.00    +0.017 C 
ATOM     13  C   UNL     1      51.194 164.496  14.781  0.00  0.00    +0.062 C 
ENDBRANCH   1   7
BRANCH   4  14
ATOM     14  C   UNL     1      51.884 161.146  20.035  0.00  0.00    +0.048 C 
ATOM     15  C   UNL     1      50.983 160.253  20.627  0.00  0.00    +0.017 C 
ATOM     16  C   UNL     1      51.392 159.433  21.647  0.00  0.00    +0.031 C 
ATOM     17  C   UNL     1      52.665 159.451  22.117  0.00  0.00    +0.140 C 
ATOM     18  C   UNL     1      53.578 160.309  21.565  0.00  0.00    +0.031 C 
ATOM     19  C   UNL     1      53.157 161.136  20.533  0.00  0.00    +0.017 C 
ATOM     20  F   UNL     1      53.090 158.637  23.136  0.00  0.00    -0.204 F 
ENDBRANCH   4  14
TORSDOF 2
