REMARK  Name = =
REMARK  2 active torsions:
REMARK  status: ('A' for Active; 'I' for Inactive)
REMARK    1  A    between atoms: C_1  and  C_6
REMARK    2  A    between atoms: C_1  and  C_13
REMARK                            x       y       z     vdW  Elec       q    Type
REMARK                         _______ _______ _______ _____ _____    ______ ____
ROOT
ATOM      1  C   UNL     1      53.185 153.614  26.339  0.00  0.00    +0.118 C 
ATOM      2  O   UNL     1      51.789 153.390  26.287  0.00  0.00    -0.356 OA
ATOM      3  C   UNL     1      51.260 153.843  27.456  0.00  0.00    +0.142 C 
ATOM      4  C   UNL     1      52.252 153.560  28.558  0.00  0.00    +0.035 C 
ATOM      5  C   UNL     1      53.561 153.543  27.794  0.00  0.00    +0.032 C 
ENDROOT
BRANCH   1   6
ATOM      6  C   UNL     1      53.785 152.544  25.500  0.00  0.00    +0.030 C 
ATOM      7  C   UNL     1      55.182 152.171  25.895  0.00  0.00    +0.020 C 
ATOM      8  C   UNL     1      55.670 150.896  25.321  0.00  0.00    +0.069 C 
ATOM      9  N   UNL     1      54.665 149.985  24.881  0.00  0.00    -0.297 NA
ATOM     10  C   UNL     1      53.550 150.079  25.828  0.00  0.00    +0.069 C 
ATOM     11  C   UNL     1      52.836 151.359  25.512  0.00  0.00    +0.020 C 
ATOM     12  H   UNL     1      55.035 149.035  24.870  0.00  0.00    +0.123 HD
ENDBRANCH   1   6
BRANCH   1  14
ATOM     13  O   UNL     1      54.727 155.269  25.515  0.00  0.00    -0.354 OA
ATOM     14  C   UNL     1      53.417 155.007  25.856  0.00  0.00    +0.140 C 
ATOM     15  C   UNL     1      52.429 155.361  24.775  0.00  0.00    +0.032 C 
ATOM     16  C   UNL     1      52.647 156.780  24.282  0.00  0.00    +0.005 C 
ATOM     17  C   UNL     1      54.128 156.950  23.985  0.00  0.00    +0.032 C 
ATOM     18  C   UNL     1      54.884 156.617  25.243  0.00  0.00    +0.142 C 
ENDBRANCH   1  14
TORSDOF 2
