REMARK  Name = =
REMARK  3 active torsions:
REMARK  status: ('A' for Active; 'I' for Inactive)
REMARK    1  A    between atoms: N_1  and  C_7
REMARK    2  A    between atoms: N_4  and  C_16
REMARK    3  A    between atoms: C_7  and  C_14
REMARK                            x       y       z     vdW  Elec       q    Type
REMARK                         _______ _______ _______ _____ _____    ______ ____
ROOT
ATOM      1  N   UNL     1      52.090 156.164  28.374  0.00  0.00    -0.237 NA
ATOM      2  C   UNL     1      51.340 156.237  27.139  0.00  0.00    +0.097 C 
ATOM      3  C   UNL     1      52.279 156.308  25.938  0.00  0.00    +0.108 C 
ATOM      4  N   UNL     1      53.149 155.153  25.914  0.00  0.00    -0.305 N 
ATOM      5  C   UNL     1      53.235 154.363  27.122  0.00  0.00    +0.108 C 
ATOM      6  C   UNL     1      53.081 155.147  28.381  0.00  0.00    +0.097 C 
ENDROOT
BRANCH   1   7
ATOM      7  C   UNL     1      51.240 156.205  29.535  0.00  0.00    +0.204 C 
ATOM      8  O   UNL     1      51.356 157.382  30.268  0.00  0.00    -0.437 OA
ATOM      9  C   UNL     1      50.554 158.510  30.058  0.00  0.00    +0.318 C 
ATOM     10  O   UNL     1      50.988 159.675  30.016  0.00  0.00    -0.250 OA
ATOM     11  C   UNL     1      49.088 158.211  29.880  0.00  0.00    +0.110 C 
ATOM     12  C   UNL     1      48.953 156.725  30.228  0.00  0.00    +0.017 C 
ATOM     13  C   UNL     1      49.791 155.963  29.201  0.00  0.00    +0.062 C 
BRANCH   7  14
ATOM     14  C   UNL     1      51.652 155.036  30.397  0.00  0.00    +0.029 C 
ATOM     15  C   UNL     1      51.397 153.791  30.000  0.00  0.00    +0.000 C 
ENDBRANCH   7  14
ENDBRANCH   1   7
BRANCH   4  16
ATOM     16  C   UNL     1      53.856 154.871  24.721  0.00  0.00    +0.048 C 
ATOM     17  C   UNL     1      53.719 153.696  24.020  0.00  0.00    +0.017 C 
ATOM     18  C   UNL     1      54.423 153.435  22.846  0.00  0.00    +0.031 C 
ATOM     19  C   UNL     1      55.302 154.383  22.351  0.00  0.00    +0.140 C 
ATOM     20  C   UNL     1      55.452 155.562  23.039  0.00  0.00    +0.031 C 
ATOM     21  C   UNL     1      54.734 155.797  24.209  0.00  0.00    +0.017 C 
ATOM     22  F   UNL     1      55.987 154.118  21.202  0.00  0.00    -0.204 F 
ENDBRANCH   4  16
TORSDOF 3
