REMARK  Name = =
REMARK  6 active torsions:
REMARK  status: ('A' for Active; 'I' for Inactive)
REMARK    1  A    between atoms: C_2  and  C_7
REMARK    2  A    between atoms: C_2  and  N_18
REMARK    3  A    between atoms: C_7  and  C_12
REMARK    4  A    between atoms: N_18  and  S_19
REMARK    5  A    between atoms: S_19  and  N_22
REMARK    6  A    between atoms: C_23  and  O_25
REMARK                            x       y       z     vdW  Elec       q    Type
REMARK                         _______ _______ _______ _____ _____    ______ ____
ROOT
ATOM      1  O   UNL     1      53.832 154.865  27.004  0.00  0.00    -0.341 OA
ATOM      2  C   UNL     1      52.785 155.506  27.536  0.00  0.00    +0.178 C 
ATOM      3  C   UNL     1      52.022 156.479  26.681  0.00  0.00    +0.047 C 
ATOM      4  C   UNL     1      52.451 156.593  25.263  0.00  0.00    +0.007 C 
ATOM      5  C   UNL     1      53.932 156.446  25.159  0.00  0.00    +0.032 C 
ATOM      6  C   UNL     1      54.456 155.251  25.881  0.00  0.00    +0.144 C 
ENDROOT
BRANCH   2   7
ATOM      7  C   UNL     1      51.802 154.429  28.075  0.00  0.00    +0.130 C 
ATOM      8  O   UNL     1      50.546 155.046  28.007  0.00  0.00    -0.355 OA
ATOM      9  C   UNL     1      49.921 154.892  29.199  0.00  0.00    +0.142 C 
ATOM     10  C   UNL     1      50.914 154.612  30.262  0.00  0.00    +0.035 C 
ATOM     11  C   UNL     1      52.128 154.187  29.489  0.00  0.00    +0.034 C 
BRANCH   7  12
ATOM     12  C   UNL     1      51.700 153.225  27.203  0.00  0.00    +0.031 C 
ATOM     13  C   UNL     1      51.534 151.980  28.072  0.00  0.00    +0.020 C 
ATOM     14  C   UNL     1      51.960 150.704  27.501  0.00  0.00    +0.069 C 
ATOM     15  N   UNL     1      51.923 150.770  26.048  0.00  0.00    -0.297 NA
ATOM     16  C   UNL     1      53.055 151.659  25.736  0.00  0.00    +0.069 C 
ATOM     17  C   UNL     1      52.713 153.056  26.134  0.00  0.00    +0.020 C 
ATOM     18  H   UNL     1      51.042 151.167  25.720  0.00  0.00    +0.123 HD
ENDBRANCH   7  12
ENDBRANCH   2   7
BRANCH   2  19
ATOM     19  N   UNL     1      53.179 156.270  28.724  0.00  0.00    -0.143 NA
ATOM     20  H   UNL     1      54.162 156.517  28.608  0.00  0.00    +0.153 HD
BRANCH  19  21
ATOM     21  S   UNL     1      52.366 157.671  29.088  0.00  0.00    +0.116 S 
ATOM     22  O   UNL     1      51.932 158.361  27.761  0.00  0.00    -0.138 OA
ATOM     23  O   UNL     1      51.100 157.572  29.844  0.00  0.00    -0.138 OA
BRANCH  21  24
ATOM     24  N   UNL     1      53.453 158.846  29.781  0.00  0.00    -0.141 N 
ATOM     25  C   UNL     1      54.759 158.944  29.234  0.00  0.00    +0.418 C 
ATOM     26  O   UNL     1      55.159 158.224  28.281  0.00  0.00    -0.225 OA
ATOM     27  H   UNL     1      53.170 159.422  30.527  0.00  0.00    +0.181 HD
BRANCH  25  28
ATOM     28  O   UNL     1      55.696 159.868  29.738  0.00  0.00    -0.465 OA
ATOM     29  H   UNL     1      55.461 160.434  30.447  0.00  0.00    +0.297 HD
ENDBRANCH  25  28
ENDBRANCH  21  24
ENDBRANCH  19  21
ENDBRANCH   2  19
TORSDOF 6
