REMARK  Name = =
REMARK  6 active torsions:
REMARK  status: ('A' for Active; 'I' for Inactive)
REMARK    1  A    between atoms: C_2  and  C_7
REMARK    2  A    between atoms: C_2  and  N_19
REMARK    3  A    between atoms: C_7  and  C_12
REMARK    4  A    between atoms: N_19  and  S_20
REMARK    5  A    between atoms: S_20  and  N_23
REMARK    6  A    between atoms: C_24  and  O_26
REMARK                            x       y       z     vdW  Elec       q    Type
REMARK                         _______ _______ _______ _____ _____    ______ ____
ROOT
ATOM      1  O   UNL     1      53.529 154.266  28.466  0.00  0.00    -0.341 OA
ATOM      2  C   UNL     1      52.781 154.413  27.369  0.00  0.00    +0.178 C 
ATOM      3  C   UNL     1      51.497 153.677  27.503  0.00  0.00    +0.047 C 
ATOM      4  C   UNL     1      51.081 153.383  28.913  0.00  0.00    +0.007 C 
ATOM      5  C   UNL     1      52.140 152.689  29.670  0.00  0.00    +0.032 C 
ATOM      6  C   UNL     1      53.483 153.184  29.262  0.00  0.00    +0.144 C 
ENDROOT
BRANCH   2   7
ATOM      7  C   UNL     1      53.515 154.060  26.059  0.00  0.00    +0.129 C 
ATOM      8  O   UNL     1      52.695 153.108  25.475  0.00  0.00    -0.355 OA
ATOM      9  C   UNL     1      53.350 151.944  25.310  0.00  0.00    +0.142 C 
ATOM     10  C   UNL     1      54.784 152.082  25.636  0.00  0.00    +0.035 C 
ATOM     11  C   UNL     1      54.771 153.387  26.332  0.00  0.00    +0.034 C 
BRANCH   7  12
ATOM     12  C   UNL     1      53.572 155.212  25.093  0.00  0.00    +0.029 C 
ATOM     13  C   UNL     1      54.844 155.022  24.240  0.00  0.00    +0.020 C 
ATOM     14  C   UNL     1      55.062 156.089  23.244  0.00  0.00    +0.069 C 
ATOM     15  N   UNL     1      54.915 157.411  23.754  0.00  0.00    -0.297 NA
ATOM     16  C   UNL     1      54.894 157.355  25.173  0.00  0.00    +0.069 C 
ATOM     17  C   UNL     1      53.684 156.572  25.680  0.00  0.00    +0.020 C 
ATOM     18  C   UNL     1      52.470 155.266  24.071  0.00  0.00    +0.003 C 
ATOM     19  H   UNL     1      54.042 157.814  23.414  0.00  0.00    +0.123 HD
ENDBRANCH   7  12
ENDBRANCH   2   7
BRANCH   2  20
ATOM     20  N   UNL     1      52.378 155.831  27.256  0.00  0.00    -0.143 NA
ATOM     21  H   UNL     1      51.451 155.844  26.830  0.00  0.00    +0.153 HD
BRANCH  20  22
ATOM     22  S   UNL     1      52.295 156.759  28.623  0.00  0.00    +0.116 S 
ATOM     23  O   UNL     1      52.425 158.229  28.159  0.00  0.00    -0.138 OA
ATOM     24  O   UNL     1      53.448 156.614  29.573  0.00  0.00    -0.138 OA
BRANCH  22  25
ATOM     25  N   UNL     1      50.765 156.690  29.394  0.00  0.00    -0.141 N 
ATOM     26  C   UNL     1      50.137 157.783  30.050  0.00  0.00    +0.418 C 
ATOM     27  O   UNL     1      50.760 158.877  30.064  0.00  0.00    -0.225 OA
ATOM     28  H   UNL     1      50.286 155.830  29.381  0.00  0.00    +0.181 HD
BRANCH  26  29
ATOM     29  O   UNL     1      48.875 157.641  30.657  0.00  0.00    -0.465 OA
ATOM     30  H   UNL     1      48.433 156.815  30.632  0.00  0.00    +0.297 HD
ENDBRANCH  26  29
ENDBRANCH  22  25
ENDBRANCH  20  22
ENDBRANCH   2  20
TORSDOF 6
