REMARK  Name = =
REMARK  9 active torsions:
REMARK  status: ('A' for Active; 'I' for Inactive)
REMARK    1  A    between atoms: C_1  and  C_6
REMARK    2  A    between atoms: C_1  and  C_26
REMARK    3  A    between atoms: C_6  and  C_12
REMARK    4  A    between atoms: C_12  and  C_13
REMARK    5  A    between atoms: C_16  and  C_19
REMARK    6  A    between atoms: C_26  and  N_31
REMARK    7  A    between atoms: N_31  and  S_32
REMARK    8  A    between atoms: S_32  and  N_35
REMARK    9  A    between atoms: C_36  and  O_38
REMARK                            x       y       z     vdW  Elec       q    Type
REMARK                         _______ _______ _______ _____ _____    ______ ____
ROOT
ATOM      1  C   UNL     1      53.088 155.728  26.344  0.00  0.00    +0.145 C 
ATOM      2  O   UNL     1      52.271 156.375  25.360  0.00  0.00    -0.353 OA
ATOM      3  C   UNL     1      52.979 156.915  24.384  0.00  0.00    +0.142 C 
ATOM      4  C   UNL     1      54.444 156.723  24.609  0.00  0.00    +0.035 C 
ATOM      5  C   UNL     1      54.441 156.093  25.990  0.00  0.00    +0.035 C 
ENDROOT
BRANCH   1   6
ATOM      6  C   UNL     1      52.426 156.183  27.597  0.00  0.00    +0.035 C 
ATOM      7  C   UNL     1      53.196 155.894  28.882  0.00  0.00    +0.020 C 
ATOM      8  C   UNL     1      52.353 156.032  30.130  0.00  0.00    +0.069 C 
ATOM      9  N   UNL     1      51.304 155.061  30.056  0.00  0.00    -0.297 NA
ATOM     10  C   UNL     1      50.434 155.423  28.986  0.00  0.00    +0.069 C 
ATOM     11  C   UNL     1      51.030 155.563  27.660  0.00  0.00    +0.020 C 
ATOM     12  H   UNL     1      50.784 155.047  30.934  0.00  0.00    +0.123 HD
BRANCH   6  13
ATOM     13  C   UNL     1      52.193 157.656  27.740  0.00  0.00    +0.029 C 
BRANCH  13  14
ATOM     14  C   UNL     1      51.479 158.279  28.828  0.00  0.00    -0.022 C 
ATOM     15  C   UNL     1      52.110 159.167  29.721  0.00  0.00    -0.004 C 
ATOM     16  C   UNL     1      51.484 159.828  30.730  0.00  0.00    -0.000 C 
ATOM     17  C   UNL     1      50.138 159.641  30.918  0.00  0.00    -0.000 C 
ATOM     18  C   UNL     1      49.462 158.802  30.099  0.00  0.00    -0.000 C 
ATOM     19  C   UNL     1      50.141 158.137  29.070  0.00  0.00    -0.004 C 
BRANCH  17  20
ATOM     20  C   UNL     1      49.434 160.376  32.008  0.00  0.00    -0.000 C 
ATOM     21  C   UNL     1      48.081 160.253  32.214  0.00  0.00    -0.000 C 
ATOM     22  C   UNL     1      47.465 160.954  33.237  0.00  0.00    +0.000 C 
ATOM     23  C   UNL     1      48.219 161.778  34.047  0.00  0.00    +0.000 C 
ATOM     24  C   UNL     1      49.578 161.912  33.852  0.00  0.00    +0.000 C 
ATOM     25  C   UNL     1      50.158 161.205  32.832  0.00  0.00    -0.000 C 
ENDBRANCH  17  20
ENDBRANCH  13  14
ENDBRANCH   6  13
ENDBRANCH   1   6
BRANCH   1  27
ATOM     26  O   UNL     1      51.712 153.791  26.089  0.00  0.00    -0.458 OA
ATOM     27  C   UNL     1      52.950 154.207  26.055  0.00  0.00    +0.239 C 
ATOM     28  C   UNL     1      53.929 153.398  26.871  0.00  0.00    +0.033 C 
ATOM     29  C   UNL     1      53.493 152.099  27.421  0.00  0.00    +0.004 C 
ATOM     30  C   UNL     1      52.076 151.709  27.286  0.00  0.00    +0.040 C 
ATOM     31  C   UNL     1      51.230 152.630  26.488  0.00  0.00    +0.174 C 
BRANCH  27  32
ATOM     32  N   UNL     1      53.381 154.157  24.643  0.00  0.00    -0.129 NA
ATOM     33  H   UNL     1      53.685 155.099  24.397  0.00  0.00    +0.154 HD
BRANCH  32  34
ATOM     34  S   UNL     1      54.582 153.136  24.172  0.00  0.00    +0.117 S 
ATOM     35  O   UNL     1      54.276 151.687  23.977  0.00  0.00    -0.138 OA
ATOM     36  O   UNL     1      54.987 153.594  22.761  0.00  0.00    -0.138 OA
BRANCH  34  37
ATOM     37  N   UNL     1      56.067 153.251  25.043  0.00  0.00    -0.141 N 
ATOM     38  C   UNL     1      56.713 152.142  25.645  0.00  0.00    +0.418 C 
ATOM     39  O   UNL     1      56.188 151.005  25.546  0.00  0.00    -0.225 OA
ATOM     40  H   UNL     1      56.489 154.136  25.127  0.00  0.00    +0.181 HD
BRANCH  38  41
ATOM     41  O   UNL     1      57.914 152.241  26.350  0.00  0.00    -0.465 OA
ATOM     42  H   UNL     1      58.335 153.073  26.444  0.00  0.00    +0.297 HD
ENDBRANCH  38  41
ENDBRANCH  34  37
ENDBRANCH  32  34
ENDBRANCH  27  32
ENDBRANCH   1  27
TORSDOF 9
