MODEL 1
REMARK VINA RESULT:    -6.473      0.000      0.000
REMARK INTER + INTRA:         -11.305
REMARK INTER:                  -9.689
REMARK INTRA:                  -1.616
REMARK UNBOUND:                -1.616
REMARK  Name = =
REMARK  10 active torsions:
REMARK  status: ('A' for Active; 'I' for Inactive)
REMARK    1  A    between atoms: C_1  and  N_7
REMARK    2  A    between atoms: C_2  and  C_31
REMARK    3  A    between atoms: C_4  and  C_21
REMARK    4  A    between atoms: C_11  and  C_13
REMARK    5  A    between atoms: C_16  and  O_20
REMARK    6  A    between atoms: C_23  and  C_27
REMARK    7  A    between atoms: C_24  and  O_30
REMARK    8  A    between atoms: N_33  and  O_34
REMARK    9  A    between atoms: O_34  and  S_35
REMARK   10  A    between atoms: S_35  and  O_37
REMARK                            x       y       z     vdW  Elec       q    Type
REMARK                         _______ _______ _______ _____ _____    ______ ____
ROOT
ATOM      1  C   UNL     1      59.496 162.336  40.743  0.00  0.00    +0.093 C 
ATOM      2  C   UNL     1      58.806 161.597  39.911  0.00  0.00    +0.097 C 
ATOM      3  C   UNL     1      57.588 160.870  40.525  0.00  0.00    +0.015 C 
ATOM      4  C   UNL     1      56.799 162.007  41.116  0.00  0.00    +0.023 C 
ATOM      5  C   UNL     1      57.550 162.689  42.182  0.00  0.00    +0.006 C 
ATOM      6  C   UNL     1      59.016 162.394  42.180  0.00  0.00    +0.021 C 
ENDROOT
BRANCH   1   7
ATOM      7  N   UNL     1      60.637 163.122  40.390  0.00  0.00    -0.212 N 
ATOM      8  C   UNL     1      61.962 162.824  40.709  0.00  0.00    +0.307 C 
ATOM      9  O   UNL     1      62.282 161.723  41.218  0.00  0.00    -0.252 OA
ATOM     10  N   UNL     1      63.014 163.728  40.486  0.00  0.00    -0.313 N 
ATOM     11  C   UNL     1      60.346 164.345  39.719  0.00  0.00    +0.258 C 
ATOM     12  O   UNL     1      59.122 164.665  39.539  0.00  0.00    -0.269 OA
ATOM     13  H   UNL     1      62.828 164.610  40.088  0.00  0.00    +0.146 HD
ATOM     14  H   UNL     1      63.935 163.481  40.728  0.00  0.00    +0.146 HD
BRANCH  11  15
ATOM     15  C   UNL     1      61.294 165.292  39.202  0.00  0.00    +0.082 C 
ATOM     16  C   UNL     1      61.853 165.071  37.945  0.00  0.00    +0.147 C 
ATOM     17  C   UNL     1      62.749 165.948  37.386  0.00  0.00    +0.066 C 
ATOM     18  C   UNL     1      63.122 167.105  38.087  0.00  0.00    +0.136 C 
ATOM     19  C   UNL     1      62.555 167.286  39.310  0.00  0.00    +0.037 C 
ATOM     20  C   UNL     1      61.660 166.422  39.887  0.00  0.00    +0.010 C 
ATOM     21  F   UNL     1      61.530 163.965  37.220  0.00  0.00    -0.204 F 
BRANCH  18  22
ATOM     22  O   UNL     1      64.025 168.027  37.565  0.00  0.00    -0.505 OA
ATOM     23  H   UNL     1      64.696 168.386  38.112  0.00  0.00    +0.292 HD
ENDBRANCH  18  22
ENDBRANCH  11  15
ENDBRANCH   1   7
BRANCH   4  24
ATOM     24  C   UNL     1      55.435 161.574  41.528  0.00  0.00    -0.022 C 
ATOM     25  C   UNL     1      54.384 162.445  41.568  0.00  0.00    +0.003 C 
ATOM     26  C   UNL     1      53.082 162.100  41.951  0.00  0.00    +0.086 C 
ATOM     27  C   UNL     1      52.875 160.782  42.306  0.00  0.00    +0.138 C 
ATOM     28  C   UNL     1      53.930 159.860  42.275  0.00  0.00    +0.036 C 
ATOM     29  C   UNL     1      55.177 160.261  41.893  0.00  0.00    -0.001 C 
BRANCH  26  30
ATOM     30  C   UNL     1      52.038 163.095  41.960  0.00  0.00    +0.246 C 
ATOM     31  O   UNL     1      50.868 162.890  41.637  0.00  0.00    -0.270 OA
ATOM     32  N   UNL     1      52.359 164.432  42.372  0.00  0.00    -0.325 N 
ATOM     33  H   UNL     1      53.278 164.657  42.642  0.00  0.00    +0.145 HD
ATOM     34  H   UNL     1      51.659 165.125  42.385  0.00  0.00    +0.145 HD
ENDBRANCH  26  30
BRANCH  27  35
ATOM     35  O   UNL     1      51.664 160.307  42.697  0.00  0.00    -0.505 OA
ATOM     36  H   UNL     1      51.387 160.405  43.586  0.00  0.00    +0.292 HD
ENDBRANCH  27  35
ENDBRANCH   4  24
BRANCH   2  37
ATOM     37  C   UNL     1      59.262 161.175  38.617  0.00  0.00    +0.247 C 
ATOM     38  O   UNL     1      59.851 160.102  38.309  0.00  0.00    -0.273 OA
ATOM     39  N   UNL     1      59.064 162.029  37.468  0.00  0.00    -0.168 N 
ATOM     40  H   UNL     1      58.618 162.901  37.568  0.00  0.00    +0.185 HD
BRANCH  39  41
ATOM     41  O   UNL     1      59.506 161.609  36.235  0.00  0.00    -0.115 OA
BRANCH  41  42
ATOM     42  S   UNL     1      58.608 162.481  35.085  0.00  0.00    +0.161 S 
ATOM     43  O   UNL     1      58.644 161.752  33.766  0.00  0.00    -0.135 OA
BRANCH  42  44
ATOM     44  O   UNL     1      59.162 164.083  34.951  0.00  0.00    -0.244 OA
ATOM     45  H   UNL     1      59.419 164.261  34.034  0.00  0.00    +0.245 HD
ENDBRANCH  42  44
ENDBRANCH  41  42
ENDBRANCH  39  41
ENDBRANCH   2  37
TORSDOF 10
ENDMDL
