MODEL 1
REMARK VINA RESULT:    -6.934      0.000      0.000
REMARK INTER + INTRA:          -7.484
REMARK INTER:                  -8.353
REMARK INTRA:                   0.869
REMARK UNBOUND:                 0.869
REMARK  Name = =
REMARK  4 active torsions:
REMARK  status: ('A' for Active; 'I' for Inactive)
REMARK    1  A    between atoms: N_1  and  N_16
REMARK    2  A    between atoms: N_16  and  S_21
REMARK    3  A    between atoms: C_17  and  C_19
REMARK    4  A    between atoms: S_21  and  S_22
REMARK                            x       y       z     vdW  Elec       q    Type
REMARK                         _______ _______ _______ _____ _____    ______ ____
ROOT
ATOM      1  N   UNL     1      50.481 163.683  41.546  0.00  0.00    -0.204 N 
ATOM      2  C   UNL     1      51.255 162.499  41.827  0.00  0.00    +0.071 C 
ATOM      3  C   UNL     1      50.741 161.241  42.042  0.00  0.00    +0.015 C 
ATOM      4  C   UNL     1      51.704 160.241  42.273  0.00  0.00    +0.001 C 
ATOM      5  C   UNL     1      53.052 160.513  42.276  0.00  0.00    +0.000 C 
ATOM      6  C   UNL     1      53.525 161.784  42.058  0.00  0.00    +0.001 C 
ATOM      7  C   UNL     1      52.599 162.811  41.827  0.00  0.00    +0.017 C 
ATOM      8  C   UNL     1      49.388 160.651  42.082  0.00  0.00    +0.001 C 
ATOM      9  C   UNL     1      48.251 161.550  42.356  0.00  0.00    +0.001 C 
ATOM     10  C   UNL     1      48.162 162.742  41.479  0.00  0.00    +0.015 C 
ATOM     11  C   UNL     1      49.085 163.694  41.109  0.00  0.00    +0.071 C 
ATOM     12  C   UNL     1      48.829 164.769  40.287  0.00  0.00    +0.017 C 
ATOM     13  C   UNL     1      47.555 164.925  39.786  0.00  0.00    +0.001 C 
ATOM     14  C   UNL     1      46.589 163.978  40.137  0.00  0.00    +0.000 C 
ATOM     15  C   UNL     1      46.872 162.914  40.959  0.00  0.00    +0.001 C 
ENDROOT
BRANCH   1  16
ATOM     16  N   UNL     1      51.008 164.935  41.687  0.00  0.00    -0.141 N 
ATOM     17  C   UNL     1      51.915 165.490  40.784  0.00  0.00    +0.275 C 
ATOM     18  O   UNL     1      52.177 164.803  39.739  0.00  0.00    -0.267 OA
BRANCH  17  19
ATOM     19  C   UNL     1      52.579 166.763  40.942  0.00  0.00    +0.060 C 
ATOM     20  C   UNL     1      52.328 167.773  40.090  0.00  0.00    +0.005 C 
ENDBRANCH  17  19
BRANCH  16  21
ATOM     21  S   UNL     1      50.695 165.951  43.034  0.00  0.00    +0.031 S 
BRANCH  21  22
ATOM     22  S   UNL     1      49.495 167.652  42.603  0.00  0.00    -0.089 S 
ATOM     23  H   UNL     1      49.320 168.382  43.737  0.00  0.00    +0.116 HD
ENDBRANCH  21  22
ENDBRANCH  16  21
ENDBRANCH   1  16
TORSDOF 4
ENDMDL
