REMARK  Name = =
REMARK  4 active torsions:
REMARK  status: ('A' for Active; 'I' for Inactive)
REMARK    1  A    between atoms: N_1  and  N_16
REMARK    2  A    between atoms: N_16  and  S_21
REMARK    3  A    between atoms: C_17  and  C_19
REMARK    4  A    between atoms: S_21  and  S_22
REMARK                            x       y       z     vdW  Elec       q    Type
REMARK                         _______ _______ _______ _____ _____    ______ ____
ROOT
ATOM      1  N   UNL     1      50.694 160.002  30.679  0.00  0.00    -0.204 N 
ATOM      2  C   UNL     1      52.101 160.046  30.366  0.00  0.00    +0.071 C 
ATOM      3  C   UNL     1      52.837 159.004  29.849  0.00  0.00    +0.015 C 
ATOM      4  C   UNL     1      54.191 159.301  29.606  0.00  0.00    +0.001 C 
ATOM      5  C   UNL     1      54.724 160.542  29.865  0.00  0.00    +0.000 C 
ATOM      6  C   UNL     1      53.955 161.555  30.383  0.00  0.00    +0.001 C 
ATOM      7  C   UNL     1      52.601 161.301  30.643  0.00  0.00    +0.017 C 
ATOM      8  C   UNL     1      52.553 157.608  29.459  0.00  0.00    +0.001 C 
ATOM      9  C   UNL     1      51.381 156.948  30.064  0.00  0.00    +0.001 C 
ATOM     10  C   UNL     1      50.101 157.687  29.933  0.00  0.00    +0.015 C 
ATOM     11  C   UNL     1      49.753 158.993  30.194  0.00  0.00    +0.071 C 
ATOM     12  C   UNL     1      48.492 159.523  30.035  0.00  0.00    +0.017 C 
ATOM     13  C   UNL     1      47.484 158.700  29.582  0.00  0.00    +0.001 C 
ATOM     14  C   UNL     1      47.799 157.366  29.304  0.00  0.00    +0.000 C 
ATOM     15  C   UNL     1      49.066 156.864  29.471  0.00  0.00    +0.001 C 
ENDROOT
BRANCH   1  16
ATOM     16  N   UNL     1      50.112 160.929  31.496  0.00  0.00    -0.141 N 
ATOM     17  C   UNL     1      49.376 160.595  32.633  0.00  0.00    +0.275 C 
ATOM     18  O   UNL     1      49.338 159.357  32.947  0.00  0.00    -0.267 OA
BRANCH  17  19
ATOM     19  C   UNL     1      48.657 161.528  33.468  0.00  0.00    +0.060 C 
ATOM     20  C   UNL     1      48.638 161.374  34.803  0.00  0.00    +0.005 C 
ENDBRANCH  17  19
BRANCH  16  21
ATOM     21  S   UNL     1      50.134 162.617  31.183  0.00  0.00    +0.031 S 
BRANCH  21  22
ATOM     22  S   UNL     1      51.190 163.773  32.621  0.00  0.00    -0.089 S 
ATOM     23  H   UNL     1      51.140 165.086  32.272  0.00  0.00    +0.116 HD
ENDBRANCH  21  22
ENDBRANCH  16  21
ENDBRANCH   1  16
TORSDOF 4
