REMARK  Name = =
REMARK  5 active torsions:
REMARK  status: ('A' for Active; 'I' for Inactive)
REMARK    1  A    between atoms: C_1  and  C_8
REMARK    2  A    between atoms: C_1  and  N_13
REMARK    3  A    between atoms: C_2  and  C_26
REMARK    4  A    between atoms: N_16  and  C_19
REMARK    5  A    between atoms: C_20  and  O_25
REMARK                            x       y       z     vdW  Elec       q    Type
REMARK                         _______ _______ _______ _____ _____    ______ ____
ROOT
ATOM      1  C   UNL     1     -12.928 -43.366  30.143  0.00  0.00    +0.063 C 
ATOM      2  C   UNL     1     -12.862 -44.732  29.523  0.00  0.00    +0.022 C 
ATOM      3  C   UNL     1     -12.974 -45.764  30.630  0.00  0.00    +0.066 C 
ATOM      4  C   UNL     1     -13.980 -45.072  31.485  0.00  0.00    +0.152 C 
ATOM      5  O   UNL     1     -15.003 -45.478  31.958  0.00  0.00    -0.296 OA
ATOM      6  C   UNL     1     -13.378 -43.723  31.604  0.00  0.00    +0.080 C 
ENDROOT
BRANCH   1   8
ATOM      7  S   UNL     1     -15.448 -42.543  30.977  0.00  0.00    -0.137 S 
ATOM      8  C   UNL     1     -14.138 -42.580  29.674  0.00  0.00    +0.077 C 
ATOM      9  C   UNL     1     -14.896 -43.285  28.555  0.00  0.00    +0.081 C 
ATOM     10  N   UNL     1     -15.766 -42.252  27.993  0.00  0.00    -0.296 NA
ATOM     11  C   UNL     1     -16.998 -42.134  28.693  0.00  0.00    +0.080 C 
ATOM     12  C   UNL     1     -17.017 -42.527  30.120  0.00  0.00    +0.075 C 
ATOM     13  H   UNL     1     -15.964 -42.486  27.020  0.00  0.00    +0.123 HD
ENDBRANCH   1   8
BRANCH   1  14
ATOM     14  N   UNL     1     -11.703 -42.729  30.135  0.00  0.00    -0.271 NA
ATOM     15  C   UNL     1     -10.485 -43.436  29.904  0.00  0.00    +0.094 C 
ATOM     16  C   UNL     1      -9.966 -44.057  31.159  0.00  0.00    +0.108 C 
ATOM     17  N   UNL     1      -9.626 -42.924  32.034  0.00  0.00    -0.302 N 
ATOM     18  C   UNL     1     -10.663 -41.938  32.257  0.00  0.00    +0.108 C 
ATOM     19  C   UNL     1     -11.412 -41.619  30.973  0.00  0.00    +0.094 C 
BRANCH  17  20
ATOM     20  C   UNL     1      -8.321 -42.826  32.568  0.00  0.00    +0.082 C 
ATOM     21  C   UNL     1      -8.120 -42.419  33.882  0.00  0.00    +0.147 C 
ATOM     22  C   UNL     1      -6.845 -42.291  34.356  0.00  0.00    +0.038 C 
ATOM     23  C   UNL     1      -5.715 -42.546  33.595  0.00  0.00    +0.003 C 
ATOM     24  C   UNL     1      -5.943 -42.949  32.294  0.00  0.00    +0.001 C 
ATOM     25  C   UNL     1      -7.210 -43.088  31.786  0.00  0.00    +0.018 C 
BRANCH  21  26
ATOM     26  O   UNL     1      -9.164 -42.136  34.742  0.00  0.00    -0.504 OA
ATOM     27  H   UNL     1     -10.049 -42.215  34.446  0.00  0.00    +0.292 HD
ENDBRANCH  21  26
ENDBRANCH  17  20
ENDBRANCH   1  14
BRANCH   2  28
ATOM     28  C   UNL     1     -11.689 -44.984  28.626  0.00  0.00    +0.002 C 
ATOM     29  C   UNL     1     -12.217 -45.397  27.253  0.00  0.00    +0.000 C 
ATOM     30  C   UNL     1     -11.538 -46.659  26.859  0.00  0.00    +0.000 C 
ATOM     31  C   UNL     1     -10.280 -46.677  27.676  0.00  0.00    +0.000 C 
ATOM     32  C   UNL     1     -10.782 -46.103  29.015  0.00  0.00    +0.000 C 
ENDBRANCH   2  28
TORSDOF 5
