MODEL 1
REMARK VINA RESULT:    -8.252      0.000      0.000
REMARK INTER + INTRA:         -17.108
REMARK INTER:                 -15.005
REMARK INTRA:                  -2.103
REMARK UNBOUND:                -2.103
REMARK  Name = =
REMARK  15 active torsions:
REMARK  status: ('A' for Active; 'I' for Inactive)
REMARK    1  A    between atoms: C_1  and  O_7
REMARK    2  A    between atoms: C_1  and  C_26
REMARK    3  A    between atoms: C_6  and  C_34
REMARK    4  A    between atoms: O_7  and  C_11
REMARK    5  A    between atoms: C_8  and  C_15
REMARK    6  A    between atoms: C_13  and  C_16
REMARK    7  A    between atoms: C_16  and  C_17
REMARK    8  A    between atoms: C_17  and  O_18
REMARK    9  A    between atoms: C_17  and  C_19
REMARK   10  A    between atoms: C_19  and  N_20
REMARK   11  A    between atoms: C_26  and  P_27
REMARK   12  A    between atoms: C_34  and  C_35
REMARK   13  A    between atoms: C_35  and  O_36
REMARK   14  A    between atoms: C_35  and  C_37
REMARK   15  A    between atoms: C_37  and  N_38
REMARK                            x       y       z     vdW  Elec       q    Type
REMARK                         _______ _______ _______ _____ _____    ______ ____
ROOT
ATOM      1  C   UNL     1       0.678  -5.508  28.622  0.00  0.00    +0.184 C 
ATOM      2  C   UNL     1       0.348  -6.350  27.409  0.00  0.00    +0.193 C 
ATOM      3  S   UNL     1       0.645  -7.855  28.259  0.00  0.00    -0.005 S 
ATOM      4  O   UNL     1       2.027  -8.404  28.193  0.00  0.00    -0.173 OA
ATOM      5  O   UNL     1      -0.430  -8.848  27.875  0.00  0.00    -0.173 OA
ATOM      6  C   UNL     1       0.243  -6.724  29.490  0.00  0.00    +0.170 C 
ENDROOT
BRANCH   1   7
ATOM      7  O   UNL     1      -0.058  -4.430  28.719  0.00  0.00    -0.464 OA
BRANCH   7  11
ATOM      8  C   UNL     1      -2.335  -1.079  29.007  0.00  0.00    +0.082 C 
ATOM      9  C   UNL     1      -1.210  -1.064  28.236  0.00  0.00    +0.016 C 
ATOM     10  C   UNL     1      -0.444  -2.169  28.131  0.00  0.00    +0.058 C 
ATOM     11  C   UNL     1      -0.787  -3.362  28.813  0.00  0.00    +0.224 C 
ATOM     12  N   UNL     1      -1.937  -3.281  29.565  0.00  0.00    -0.215 NA
ATOM     13  C   UNL     1      -2.712  -2.242  29.701  0.00  0.00    +0.074 C 
BRANCH   8  15
ATOM     14  N   UNL     1      -3.772   1.058  29.155  0.00  0.00    -0.191 NA
ATOM     15  C   UNL     1      -3.123   0.110  29.087  0.00  0.00    +0.102 C 
ENDBRANCH   8  15
BRANCH  13  16
ATOM     16  C   UNL     1      -3.958  -2.144  30.525  0.00  0.00    +0.077 C 
BRANCH  16  17
ATOM     17  C   UNL     1      -4.414  -3.512  30.996  0.00  0.00    +0.132 C 
BRANCH  17  18
ATOM     18  O   UNL     1      -4.777  -4.266  29.894  0.00  0.00    -0.383 OA
ATOM     19  H   UNL     1      -5.722  -4.479  29.944  0.00  0.00    +0.210 HD
ENDBRANCH  17  18
BRANCH  17  20
ATOM     20  C   UNL     1      -5.569  -3.435  31.955  0.00  0.00    +0.102 C 
BRANCH  20  21
ATOM     21  N   UNL     1      -6.377  -2.303  31.676  0.00  0.00    -0.266 NA
ATOM     22  C   UNL     1      -7.803  -2.572  31.860  0.00  0.00    +0.105 C 
ATOM     23  C   UNL     1      -8.563  -1.494  31.140  0.00  0.00    +0.159 C 
ATOM     24  O   UNL     1      -8.131  -0.262  31.526  0.00  0.00    -0.351 OA
ATOM     25  C   UNL     1      -7.234  -0.188  32.551  0.00  0.00    +0.159 C 
ATOM     26  C   UNL     1      -6.013  -1.076  32.348  0.00  0.00    +0.105 C 
ENDBRANCH  20  21
ENDBRANCH  17  20
ENDBRANCH  16  17
ENDBRANCH  13  16
ENDBRANCH   7  11
ENDBRANCH   1   7
BRANCH   1  27
ATOM     27  C   UNL     1       2.165  -5.336  28.865  0.00  0.00    +0.104 C 
BRANCH  27  28
ATOM     28  P   UNL     1       2.976  -3.972  28.119  0.00  0.00    +0.120 P 
ATOM     29  O   UNL     1       2.643  -2.724  28.981  0.00  0.00    -0.319 OA
ATOM     30  C   UNL     1       4.762  -4.014  28.035  0.00  0.00    +0.077 C 
ATOM     31  C   UNL     1       5.150  -2.943  26.991  0.00  0.00    +0.076 C 
ATOM     32  N   UNL     1       4.158  -1.917  27.009  0.00  0.00    -0.297 NA
ATOM     33  C   UNL     1       3.010  -2.145  26.187  0.00  0.00    +0.076 C 
ATOM     34  C   UNL     1       2.369  -3.517  26.466  0.00  0.00    +0.077 C 
ATOM     35  H   UNL     1       4.598  -1.051  26.700  0.00  0.00    +0.123 HD
ENDBRANCH  27  28
ENDBRANCH   1  27
BRANCH   6  36
ATOM     36  C   UNL     1       0.943  -6.803  30.806  0.00  0.00    +0.058 C 
BRANCH  36  37
ATOM     37  C   UNL     1       0.097  -6.739  32.009  0.00  0.00    +0.132 C 
BRANCH  37  38
ATOM     38  O   UNL     1       0.758  -6.243  33.143  0.00  0.00    -0.383 OA
ATOM     39  H   UNL     1       0.219  -6.412  33.931  0.00  0.00    +0.210 HD
ENDBRANCH  37  38
BRANCH  37  40
ATOM     40  C   UNL     1      -0.715  -7.938  32.349  0.00  0.00    +0.126 C 
BRANCH  40  41
ATOM     41  N   UNL     1      -2.135  -7.567  32.391  0.00  0.00    -0.271 N 
ATOM     42  C   UNL     1      -2.686  -6.732  33.287  0.00  0.00    +0.087 C 
ATOM     43  C   UNL     1      -4.022  -6.659  32.976  0.00  0.00    +0.116 C 
ATOM     44  N   UNL     1      -4.282  -7.437  31.904  0.00  0.00    -0.232 NA
ATOM     45  C   UNL     1      -3.114  -7.989  31.556  0.00  0.00    +0.113 C 
ATOM     46  C   UNL     1      -2.977  -8.923  30.410  0.00  0.00    +0.069 C 
ENDBRANCH  40  41
ENDBRANCH  37  40
ENDBRANCH  36  37
ENDBRANCH   6  36
TORSDOF 15
ENDMDL
