REMARK  Name = =
REMARK  15 active torsions:
REMARK  status: ('A' for Active; 'I' for Inactive)
REMARK    1  A    between atoms: C_1  and  O_7
REMARK    2  A    between atoms: C_1  and  C_26
REMARK    3  A    between atoms: C_6  and  C_34
REMARK    4  A    between atoms: O_7  and  C_11
REMARK    5  A    between atoms: C_8  and  C_15
REMARK    6  A    between atoms: C_13  and  C_16
REMARK    7  A    between atoms: C_16  and  C_17
REMARK    8  A    between atoms: C_17  and  O_18
REMARK    9  A    between atoms: C_17  and  C_19
REMARK   10  A    between atoms: C_19  and  N_20
REMARK   11  A    between atoms: C_26  and  P_27
REMARK   12  A    between atoms: C_34  and  C_35
REMARK   13  A    between atoms: C_35  and  O_36
REMARK   14  A    between atoms: C_35  and  C_37
REMARK   15  A    between atoms: C_37  and  N_38
REMARK                            x       y       z     vdW  Elec       q    Type
REMARK                         _______ _______ _______ _____ _____    ______ ____
ROOT
ATOM      1  C   UNL     1      -0.469  -4.652  29.611  0.00  0.00    +0.184 C 
ATOM      2  C   UNL     1       0.832  -4.559  30.377  0.00  0.00    +0.193 C 
ATOM      3  S   UNL     1       1.713  -3.953  28.987  0.00  0.00    -0.005 S 
ATOM      4  O   UNL     1       2.367  -4.964  28.112  0.00  0.00    -0.173 OA
ATOM      5  O   UNL     1       2.637  -2.846  29.444  0.00  0.00    -0.173 OA
ATOM      6  C   UNL     1       0.075  -3.517  28.697  0.00  0.00    +0.170 C 
ENDROOT
BRANCH   1   7
ATOM      7  O   UNL     1      -1.519  -4.362  30.337  0.00  0.00    -0.464 OA
BRANCH   7  11
ATOM      8  C   UNL     1      -4.771  -3.470  32.601  0.00  0.00    +0.082 C 
ATOM      9  C   UNL     1      -3.622  -3.884  33.208  0.00  0.00    +0.016 C 
ATOM     10  C   UNL     1      -2.534  -4.184  32.469  0.00  0.00    +0.058 C 
ATOM     11  C   UNL     1      -2.559  -4.077  31.057  0.00  0.00    +0.224 C 
ATOM     12  N   UNL     1      -3.760  -3.652  30.536  0.00  0.00    -0.215 NA
ATOM     13  C   UNL     1      -4.839  -3.350  31.202  0.00  0.00    +0.074 C 
BRANCH   8  15
ATOM     14  N   UNL     1      -6.797  -2.897  34.091  0.00  0.00    -0.191 NA
ATOM     15  C   UNL     1      -5.899  -3.156  33.419  0.00  0.00    +0.102 C 
ENDBRANCH   8  15
BRANCH  13  16
ATOM     16  C   UNL     1      -6.151  -2.897  30.641  0.00  0.00    +0.077 C 
BRANCH  16  17
ATOM     17  C   UNL     1      -6.680  -1.688  31.388  0.00  0.00    +0.132 C 
BRANCH  17  18
ATOM     18  O   UNL     1      -8.031  -1.552  31.120  0.00  0.00    -0.383 OA
ATOM     19  H   UNL     1      -8.493  -2.370  31.362  0.00  0.00    +0.210 HD
ENDBRANCH  17  18
BRANCH  17  20
ATOM     20  C   UNL     1      -5.963  -0.421  31.013  0.00  0.00    +0.102 C 
BRANCH  20  21
ATOM     21  N   UNL     1      -6.759   0.713  31.316  0.00  0.00    -0.266 NA
ATOM     22  C   UNL     1      -6.194   1.954  30.785  0.00  0.00    +0.105 C 
ATOM     23  C   UNL     1      -6.848   3.095  31.512  0.00  0.00    +0.159 C 
ATOM     24  O   UNL     1      -8.204   2.984  31.459  0.00  0.00    -0.351 OA
ATOM     25  C   UNL     1      -8.738   2.000  30.680  0.00  0.00    +0.159 C 
ATOM     26  C   UNL     1      -8.160   0.621  30.973  0.00  0.00    +0.105 C 
ENDBRANCH  20  21
ENDBRANCH  17  20
ENDBRANCH  16  17
ENDBRANCH  13  16
ENDBRANCH   7  11
ENDBRANCH   1   7
BRANCH   1  27
ATOM     27  C   UNL     1      -0.576  -5.881  28.728  0.00  0.00    +0.104 C 
BRANCH  27  28
ATOM     28  P   UNL     1      -0.932  -7.421  29.487  0.00  0.00    +0.120 P 
ATOM     29  O   UNL     1      -0.609  -8.523  28.442  0.00  0.00    -0.319 OA
ATOM     30  C   UNL     1       0.012  -7.868  30.938  0.00  0.00    +0.077 C 
ATOM     31  C   UNL     1      -0.779  -9.013  31.608  0.00  0.00    +0.076 C 
ATOM     32  N   UNL     1      -1.479  -9.730  30.591  0.00  0.00    -0.297 NA
ATOM     33  C   UNL     1      -2.759  -9.206  30.227  0.00  0.00    +0.076 C 
ATOM     34  C   UNL     1      -2.685  -7.708  29.875  0.00  0.00    +0.077 C 
ATOM     35  H   UNL     1      -1.614 -10.686  30.919  0.00  0.00    +0.123 HD
ENDBRANCH  27  28
ENDBRANCH   1  27
BRANCH   6  36
ATOM     36  C   UNL     1      -0.453  -3.565  27.301  0.00  0.00    +0.058 C 
BRANCH  36  37
ATOM     37  C   UNL     1       0.450  -3.094  26.238  0.00  0.00    +0.132 C 
BRANCH  37  38
ATOM     38  O   UNL     1       1.664  -3.795  26.173  0.00  0.00    -0.383 OA
ATOM     39  H   UNL     1       2.207  -3.435  25.455  0.00  0.00    +0.210 HD
ENDBRANCH  37  38
BRANCH  37  40
ATOM     40  C   UNL     1       0.675  -1.629  26.119  0.00  0.00    +0.126 C 
BRANCH  40  41
ATOM     41  N   UNL     1       1.522  -1.362  24.950  0.00  0.00    -0.271 N 
ATOM     42  C   UNL     1       1.069  -1.158  23.702  0.00  0.00    +0.087 C 
ATOM     43  C   UNL     1       2.178  -0.948  22.918  0.00  0.00    +0.116 C 
ATOM     44  N   UNL     1       3.292  -1.022  23.678  0.00  0.00    -0.232 NA
ATOM     45  C   UNL     1       2.874  -1.278  24.923  0.00  0.00    +0.113 C 
ATOM     46  C   UNL     1       3.807  -1.436  26.067  0.00  0.00    +0.069 C 
ENDBRANCH  40  41
ENDBRANCH  37  40
ENDBRANCH  36  37
ENDBRANCH   6  36
TORSDOF 15
