REMARK  Name = =
REMARK  0 active torsions:
REMARK  status: ('A' for Active; 'I' for Inactive)
REMARK                            x       y       z     vdW  Elec       q    Type
REMARK                         _______ _______ _______ _____ _____    ______ ____
ROOT
ATOM      1 CL   UNL     1      52.171 155.987  28.526  0.00  0.00    +0.058 Cl
ATOM      2  O   UNL     1      51.227 155.776  29.915  0.00  0.00    -0.294 OA
ATOM      3  H   UNL     1      51.805 155.699  30.690  0.00  0.00    +0.235 HD
ENDROOT
TORSDOF 0
