REMARK  Name = =
REMARK  1 active torsions:
REMARK  status: ('A' for Active; 'I' for Inactive)
REMARK    1  A    between atoms: N_1  and  O_7
REMARK                            x       y       z     vdW  Elec       q    Type
REMARK                         _______ _______ _______ _____ _____    ______ ____
ROOT
ATOM      1  N   UNL     1      50.387 157.263  30.040  0.00  0.00    -0.094 N 
ATOM      2  C   UNL     1      50.779 158.538  30.288  0.00  0.00    +0.230 C 
ATOM      3  N   UNL     1      49.667 159.296  30.328  0.00  0.00    -0.199 NA
ATOM      4  C   UNL     1      48.583 158.528  30.111  0.00  0.00    +0.224 C 
ATOM      5  N   UNL     1      49.065 157.282  29.939  0.00  0.00    -0.119 NA
ENDROOT
BRANCH   1   7
ATOM      6 CL   UNL     1      51.553 155.559  28.338  0.00  0.00    +0.093 Cl
ATOM      7  O   UNL     1      51.227 156.168  29.921  0.00  0.00    -0.135 OA
ENDBRANCH   1   7
TORSDOF 1
