REMARK  Name = =
REMARK  2 active torsions:
REMARK  status: ('A' for Active; 'I' for Inactive)
REMARK    1  A    between atoms: C_1  and  C_18
REMARK    2  A    between atoms: N_15  and  O_21
REMARK                            x       y       z     vdW  Elec       q    Type
REMARK                         _______ _______ _______ _____ _____    ______ ____
ROOT
ATOM      1  C   UNL     1      51.876 156.677  28.869  0.00  0.00    +0.036 C 
ATOM      2  C   UNL     1      52.365 156.596  27.598  0.00  0.00    +0.022 C 
ATOM      3  C   UNL     1      52.625 155.381  27.004  0.00  0.00    +0.081 C 
ATOM      4  N   UNL     1      53.114 155.355  25.729  0.00  0.00    -0.244 NA
ATOM      5  C   UNL     1      53.374 154.178  25.133  0.00  0.00    +0.099 C 
ATOM      6  C   UNL     1      53.161 152.977  25.774  0.00  0.00    +0.099 C 
ATOM      7  N   UNL     1      53.433 151.802  25.146  0.00  0.00    -0.242 NA
ATOM      8  C   UNL     1      53.914 151.720  23.896  0.00  0.00    +0.099 C 
ATOM      9  C   UNL     1      54.139 152.907  23.228  0.00  0.00    +0.022 C 
ATOM     10  C   UNL     1      53.875 154.121  23.830  0.00  0.00    +0.022 C 
ATOM     11  C   UNL     1      52.666 152.997  27.062  0.00  0.00    +0.022 C 
ATOM     12  C   UNL     1      52.397 154.204  27.681  0.00  0.00    +0.019 C 
ATOM     13  C   UNL     1      51.901 154.264  28.971  0.00  0.00    +0.002 C 
ATOM     14  C   UNL     1      51.652 155.493  29.536  0.00  0.00    +0.003 C 
ENDROOT
BRANCH   1  18
ATOM     15  N   UNL     1      51.706 160.008  30.214  0.00  0.00    -0.029 NA
ATOM     16  C   UNL     1      50.566 159.482  30.686  0.00  0.00    +0.252 C 
ATOM     17  N   UNL     1      50.495 158.221  30.257  0.00  0.00    -0.231 NA
ATOM     18  C   UNL     1      51.592 157.972  29.520  0.00  0.00    +0.164 C 
ATOM     19  N   UNL     1      52.318 159.081  29.508  0.00  0.00    -0.117 NA
BRANCH  15  21
ATOM     20 CL   UNL     1      51.530 162.137  31.825  0.00  0.00    +0.086 Cl
ATOM     21  O   UNL     1      52.160 161.309  30.434  0.00  0.00    -0.164 OA
ENDBRANCH  15  21
ENDBRANCH   1  18
TORSDOF 2
