REMARK  Name = =
REMARK  10 active torsions:
REMARK  status: ('A' for Active; 'I' for Inactive)
REMARK    1  A    between atoms: S_1  and  N_2
REMARK    2  A    between atoms: S_1  and  C_14
REMARK    3  A    between atoms: S_1  and  P_20
REMARK    4  A    between atoms: C_3  and  N_8
REMARK    5  A    between atoms: C_9  and  C_11
REMARK    6  A    between atoms: C_11  and  O_13
REMARK    7  A    between atoms: C_14  and  O_16
REMARK    8  A    between atoms: O_16  and  C_17
REMARK    9  A    between atoms: P_20  and  O_22
REMARK   10  A    between atoms: P_20  and  O_23
REMARK                            x       y       z     vdW  Elec       q    Type
REMARK                         _______ _______ _______ _____ _____    ______ ____
ROOT
ATOM      1  S   UNL     1      51.775 160.971  30.593  0.00  0.00    -0.020 S 
ATOM      2  H   UNL     1      51.458 161.682  29.478  0.00  0.00    +0.120 HD
ENDROOT
BRANCH   1   3
ATOM      3  N   UNL     1      52.739 159.821  29.979  0.00  0.00    -0.222 N 
ATOM      4  C   UNL     1      54.143 159.643  30.112  0.00  0.00    +0.161 C 
ATOM      5  C   UNL     1      54.324 158.118  30.142  0.00  0.00    +0.051 C 
ATOM      6  C   UNL     1      53.274 157.617  29.207  0.00  0.00    +0.090 C 
ATOM      7  C   UNL     1      52.321 158.719  29.133  0.00  0.00    +0.235 C 
ATOM      8  O   UNL     1      51.269 158.691  28.411  0.00  0.00    -0.274 OA
BRANCH   4   9
ATOM      9  N   UNL     1      54.767 160.214  31.258  0.00  0.00    -0.281 N 
ATOM     10  C   UNL     1      55.695 161.291  31.055  0.00  0.00    +0.323 C 
ATOM     11  O   UNL     1      55.910 161.678  29.883  0.00  0.00    -0.263 OA
ATOM     12  H   UNL     1      54.568 159.880  32.163  0.00  0.00    +0.151 HD
BRANCH  10  13
ATOM     13  C   UNL     1      56.376 161.927  32.181  0.00  0.00    +0.392 C 
ATOM     14  O   UNL     1      55.735 162.655  32.948  0.00  0.00    -0.240 OA
BRANCH  13  15
ATOM     15  O   UNL     1      57.713 161.712  32.380  0.00  0.00    -0.474 OA
ATOM     16  H   UNL     1      58.191 161.159  31.794  0.00  0.00    +0.296 HD
ENDBRANCH  13  15
ENDBRANCH  10  13
ENDBRANCH   4   9
ENDBRANCH   1   3
BRANCH   1  17
ATOM     17  C   UNL     1      50.238 160.550  31.001  0.00  0.00    +0.177 C 
ATOM     18  C   UNL     1      49.179 161.297  30.679  0.00  0.00    +0.048 C 
BRANCH  17  19
ATOM     19  O   UNL     1      49.955 159.385  31.711  0.00  0.00    -0.436 OA
BRANCH  19  20
ATOM     20  C   UNL     1      48.854 158.590  31.544  0.00  0.00    +0.204 C 
ATOM     21  C   UNL     1      48.179 158.138  32.581  0.00  0.00    +0.054 C 
ATOM     22 CL   UNL     1      48.327 158.157  29.944  0.00  0.00    -0.042 Cl
ENDBRANCH  19  20
ENDBRANCH  17  19
ENDBRANCH   1  17
BRANCH   1  23
ATOM     23  P   UNL     1      52.582 162.197  31.560  0.00  0.00    +0.388 P 
ATOM     24  O   UNL     1      53.337 161.671  32.729  0.00  0.00    -0.246 OA
BRANCH  23  25
ATOM     25  O   UNL     1      53.678 163.113  30.613  0.00  0.00    -0.316 OA
ATOM     26  H   UNL     1      53.215 163.472  29.839  0.00  0.00    +0.221 HD
ENDBRANCH  23  25
BRANCH  23  27
ATOM     27  O   UNL     1      51.454 163.343  32.160  0.00  0.00    -0.316 OA
ATOM     28  H   UNL     1      50.796 162.891  32.711  0.00  0.00    +0.221 HD
ENDBRANCH  23  27
ENDBRANCH   1  23
TORSDOF 10
