REMARK  Name = =
REMARK  2 active torsions:
REMARK  status: ('A' for Active; 'I' for Inactive)
REMARK    1  A    between atoms: C_1  and  C_4
REMARK    2  A    between atoms: N_3  and  O_6
REMARK                            x       y       z     vdW  Elec       q    Type
REMARK                         _______ _______ _______ _____ _____    ______ ____
ROOT
ATOM      1  C   UNL     1      52.122 155.488  28.129  0.00  0.00    +0.310 C 
ATOM      2  O   UNL     1      51.562 154.470  27.630  0.00  0.00    -0.264 OA
ATOM      3  N   UNL     1      52.073 155.705  29.518  0.00  0.00    -0.191 N 
ATOM      4  H   UNL     1      52.504 156.492  29.923  0.00  0.00    +0.183 HD
ENDROOT
BRANCH   1   5
ATOM      5  C   UNL     1      52.821 156.441  27.285  0.00  0.00    +0.294 C 
ATOM      6  O   UNL     1      53.419 157.393  27.810  0.00  0.00    -0.278 OA
ENDBRANCH   1   5
BRANCH   3   7
ATOM      7  O   UNL     1      51.417 154.802  30.282  0.00  0.00    -0.295 OA
ATOM      8  H   UNL     1      51.059 154.100  29.717  0.00  0.00    +0.241 HD
ENDBRANCH   3   7
TORSDOF 2
