REMARK  Name = =
REMARK  0 active torsions:
REMARK  status: ('A' for Active; 'I' for Inactive)
REMARK                            x       y       z     vdW  Elec       q    Type
REMARK                         _______ _______ _______ _____ _____    ______ ____
ROOT
ATOM      1  N   UNL     1      52.815 156.009  28.868  0.00  0.00    -0.295 NA
ATOM      2  C   UNL     1      51.677 156.155  29.387  0.00  0.00    +0.109 C 
ATOM      3  H   UNL     1      53.029 155.184  28.374  0.00  0.00    +0.187 HD
ENDROOT
TORSDOF 0
