REMARK  Name = =
REMARK  2 active torsions:
REMARK  status: ('A' for Active; 'I' for Inactive)
REMARK    1  A    between atoms: C_1  and  C_6
REMARK    2  A    between atoms: N_3  and  O_8
REMARK                            x       y       z     vdW  Elec       q    Type
REMARK                         _______ _______ _______ _____ _____    ______ ____
ROOT
ATOM      1  C   UNL     1      52.822 155.836  27.289  0.00  0.00    +0.319 C 
ATOM      2  O   UNL     1      52.660 156.902  27.951  0.00  0.00    -0.264 OA
ATOM      3  N   UNL     1      52.610 154.581  27.910  0.00  0.00    -0.123 N 
ATOM      4  C   UNL     1      52.763 153.322  27.298  0.00  0.00    +0.188 C 
ATOM      5  N   UNL     1      53.873 152.925  26.817  0.00  0.00    -0.281 NA
ATOM      6  H   UNL     1      53.938 152.037  26.397  0.00  0.00    +0.188 HD
ENDROOT
BRANCH   1   7
ATOM      7  C   UNL     1      53.226 155.934  25.897  0.00  0.00    +0.294 C 
ATOM      8  O   UNL     1      52.721 155.239  24.979  0.00  0.00    -0.278 OA
ENDBRANCH   1   7
BRANCH   3   9
ATOM      9  O   UNL     1      52.219 154.545  29.228  0.00  0.00    -0.286 OA
ATOM     10  H   UNL     1      52.139 155.451  29.566  0.00  0.00    +0.242 HD
ENDBRANCH   3   9
TORSDOF 2
