REMARK  Name = =
REMARK  1 active torsions:
REMARK  status: ('A' for Active; 'I' for Inactive)
REMARK    1  A    between atoms: N_3  and  C_4
REMARK                            x       y       z     vdW  Elec       q    Type
REMARK                         _______ _______ _______ _____ _____    ______ ____
ROOT
ATOM      1  N   UNL     1      52.803 156.638  29.129  0.00  0.00    -0.283 NA
ATOM      2  C   UNL     1      51.597 156.355  29.519  0.00  0.00    +0.156 C 
ATOM      3  N   UNL     1      50.852 155.390  28.778  0.00  0.00    -0.289 N 
ATOM      4  H   UNL     1      53.338 157.301  29.624  0.00  0.00    +0.188 HD
ATOM      5  H   UNL     1      49.898 155.255  28.980  0.00  0.00    +0.154 HD
ENDROOT
BRANCH   3   6
ATOM      6  C   UNL     1      51.463 154.622  27.755  0.00  0.00    +0.106 C 
ATOM      7  S   UNL     1      52.082 153.137  28.001  0.00  0.00    -0.033 S 
ENDBRANCH   3   6
TORSDOF 1
