REMARK  Name = =
REMARK  4 active torsions:
REMARK  status: ('A' for Active; 'I' for Inactive)
REMARK    1  A    between atoms: C_1  and  C_3
REMARK    2  A    between atoms: C_1  and  O_9
REMARK    3  A    between atoms: N_5  and  O_8
REMARK    4  A    between atoms: O_9  and  C_10
REMARK                            x       y       z     vdW  Elec       q    Type
REMARK                         _______ _______ _______ _____ _____    ______ ____
ROOT
ATOM      1  C   UNL     1      52.331 155.952  28.243  0.00  0.00    +0.406 C 
ATOM      2  O   UNL     1      53.122 156.702  27.637  0.00  0.00    -0.239 OA
ENDROOT
BRANCH   1   3
ATOM      3  C   UNL     1      52.116 154.590  27.804  0.00  0.00    +0.353 C 
ATOM      4  O   UNL     1      51.497 153.793  28.616  0.00  0.00    -0.260 OA
ATOM      5  N   UNL     1      52.516 154.044  26.573  0.00  0.00    -0.120 N 
ATOM      6  C   UNL     1      53.195 154.722  25.549  0.00  0.00    +0.188 C 
ATOM      7  N   UNL     1      53.515 154.092  24.437  0.00  0.00    -0.281 NA
ATOM      8  H   UNL     1      53.991 154.570  23.720  0.00  0.00    +0.188 HD
BRANCH   5   9
ATOM      9  O   UNL     1      52.213 152.721  26.351  0.00  0.00    -0.286 OA
ATOM     10  H   UNL     1      51.748 152.362  27.123  0.00  0.00    +0.242 HD
ENDBRANCH   5   9
ENDBRANCH   1   3
BRANCH   1  11
ATOM     11  O   UNL     1      51.654 156.468  29.365  0.00  0.00    -0.372 OA
BRANCH  11  12
ATOM     12  C   UNL     1      51.705 157.818  29.676  0.00  0.00    +0.405 C 
ATOM     13  O   UNL     1      52.746 158.439  29.270  0.00  0.00    -0.226 OA
ATOM     14  N   UNL     1      50.680 158.482  30.399  0.00  0.00    -0.295 N 
ATOM     15  H   UNL     1      49.888 157.982  30.701  0.00  0.00    +0.148 HD
ATOM     16  H   UNL     1      50.761 159.443  30.598  0.00  0.00    +0.148 HD
ENDBRANCH  11  12
ENDBRANCH   1  11
TORSDOF 4
