REMARK  Name = =
REMARK  2 active torsions:
REMARK  status: ('A' for Active; 'I' for Inactive)
REMARK    1  A    between atoms: C_1  and  N_11
REMARK    2  A    between atoms: N_13  and  C_14
REMARK                            x       y       z     vdW  Elec       q    Type
REMARK                         _______ _______ _______ _____ _____    ______ ____
ROOT
ATOM      1  C   UNL     1      51.526 158.603  29.920  0.00  0.00    +0.092 C 
ATOM      2  C   UNL     1      50.375 159.122  30.246  0.00  0.00    -0.025 C 
ATOM      3  C   UNL     1      50.321 160.306  31.111  0.00  0.00    +0.020 C 
ATOM      4  C   UNL     1      49.448 159.946  32.312  0.00  0.00    +0.004 C 
ATOM      5  C   UNL     1      49.207 161.315  32.913  0.00  0.00    +0.000 C 
ATOM      6  C   UNL     1      49.285 162.300  31.772  0.00  0.00    +0.000 C 
ATOM      7  C   UNL     1      49.574 161.461  30.530  0.00  0.00    +0.004 C 
ATOM      8  C   UNL     1      48.112 159.401  31.867  0.00  0.00    +0.001 C 
ATOM      9  C   UNL     1      48.245 158.233  30.936  0.00  0.00    +0.004 C 
ATOM     10  C   UNL     1      49.132 158.521  29.745  0.00  0.00    +0.024 C 
ENDROOT
BRANCH   1  11
ATOM     11  N   UNL     1      51.661 157.450  29.080  0.00  0.00    -0.227 NA
ATOM     12  C   UNL     1      51.981 156.292  29.552  0.00  0.00    +0.164 C 
ATOM     13  N   UNL     1      52.083 155.226  28.615  0.00  0.00    -0.289 N 
ATOM     14  H   UNL     1      51.976 154.291  28.905  0.00  0.00    +0.154 HD
BRANCH  13  15
ATOM     15  C   UNL     1      52.343 155.536  27.251  0.00  0.00    +0.106 C 
ATOM     16  S   UNL     1      52.937 154.381  26.239  0.00  0.00    -0.033 S 
ENDBRANCH  13  15
ENDBRANCH   1  11
TORSDOF 2
