REMARK  Name = =
REMARK  8 active torsions:
REMARK  status: ('A' for Active; 'I' for Inactive)
REMARK    1  A    between atoms: C_2  and  N_15
REMARK    2  A    between atoms: C_4  and  C_12
REMARK    3  A    between atoms: C_6  and  C_9
REMARK    4  A    between atoms: C_19  and  N_21
REMARK    5  A    between atoms: C_19  and  O_22
REMARK    6  A    between atoms: O_22  and  C_23
REMARK    7  A    between atoms: C_23  and  C_25
REMARK    8  A    between atoms: N_27  and  O_30
REMARK                            x       y       z     vdW  Elec       q    Type
REMARK                         _______ _______ _______ _____ _____    ______ ____
ROOT
ATOM      1  C   UNL     1      51.660 159.721  30.520  0.00  0.00    +0.020 C 
ATOM      2  C   UNL     1      50.360 159.322  30.814  0.00  0.00    +0.056 C 
ATOM      3  C   UNL     1      49.443 160.125  31.466  0.00  0.00    +0.048 C 
ATOM      4  C   UNL     1      49.822 161.407  31.855  0.00  0.00    +0.065 C 
ATOM      5  C   UNL     1      51.104 161.819  31.572  0.00  0.00    +0.039 C 
ATOM      6  C   UNL     1      52.014 160.983  30.910  0.00  0.00    +0.060 C 
ATOM      7  I   UNL     1      51.711 163.757  32.142  0.00  0.00    -0.042 I 
ATOM      8  I   UNL     1      47.485 159.438  31.875  0.00  0.00    -0.041 I 
ENDROOT
BRANCH   6   9
ATOM      9  C   UNL     1      53.331 161.507  30.654  0.00  0.00    +0.243 C 
ATOM     10  O   UNL     1      53.746 162.578  31.202  0.00  0.00    -0.270 OA
ATOM     11  N   UNL     1      54.218 160.841  29.775  0.00  0.00    -0.325 N 
ATOM     12  H   UNL     1      53.937 160.009  29.330  0.00  0.00    +0.145 HD
ATOM     13  H   UNL     1      55.116 161.210  29.609  0.00  0.00    +0.145 HD
ENDBRANCH   6   9
BRANCH   4  14
ATOM     14  C   UNL     1      48.825 162.216  32.538  0.00  0.00    +0.244 C 
ATOM     15  O   UNL     1      48.049 162.958  31.870  0.00  0.00    -0.270 OA
ATOM     16  N   UNL     1      48.743 162.155  33.954  0.00  0.00    -0.325 N 
ATOM     17  H   UNL     1      49.355 161.572  34.458  0.00  0.00    +0.145 HD
ATOM     18  H   UNL     1      48.074 162.696  34.432  0.00  0.00    +0.145 HD
ENDBRANCH   4  14
BRANCH   2  19
ATOM     19  N   UNL     1      49.940 158.009  30.426  0.00  0.00    -0.276 N 
ATOM     20  C   UNL     1      48.815 157.843  29.584  0.00  0.00    +0.304 C 
ATOM     21  O   UNL     1      48.159 158.836  29.160  0.00  0.00    -0.265 OA
ATOM     22  H   UNL     1      50.435 157.220  30.746  0.00  0.00    +0.155 HD
ENDBRANCH   2  19
TORSDOF 3
REMARK  Name = =
REMARK  8 active torsions:
REMARK  status: ('A' for Active; 'I' for Inactive)
REMARK    1  A    between atoms: C_2  and  N_15
REMARK    2  A    between atoms: C_4  and  C_12
REMARK    3  A    between atoms: C_6  and  C_9
REMARK    4  A    between atoms: C_19  and  N_21
REMARK    5  A    between atoms: C_19  and  O_22
REMARK    6  A    between atoms: O_22  and  C_23
REMARK    7  A    between atoms: C_23  and  C_25
REMARK    8  A    between atoms: N_27  and  O_30
REMARK                            x       y       z     vdW  Elec       q    Type
REMARK                         _______ _______ _______ _____ _____    ______ ____
ROOT
ATOM      1  I   UNL     1      53.004 158.442  29.525  0.00  0.00    -0.107 I 
ATOM      2  H   UNL     1      54.565 158.442  29.525  0.00  0.00    +0.107 HD
ENDROOT
TORSDOF 0
REMARK  Name = =
REMARK  8 active torsions:
REMARK  status: ('A' for Active; 'I' for Inactive)
REMARK    1  A    between atoms: C_2  and  N_15
REMARK    2  A    between atoms: C_4  and  C_12
REMARK    3  A    between atoms: C_6  and  C_9
REMARK    4  A    between atoms: C_19  and  N_21
REMARK    5  A    between atoms: C_19  and  O_22
REMARK    6  A    between atoms: O_22  and  C_23
REMARK    7  A    between atoms: C_23  and  C_25
REMARK    8  A    between atoms: N_27  and  O_30
REMARK                            x       y       z     vdW  Elec       q    Type
REMARK                         _______ _______ _______ _____ _____    ______ ____
ROOT
ATOM      1  C   UNL     1      52.400 152.933  26.389  0.00  0.00    +0.353 C 
ATOM      2  O   UNL     1      51.655 152.492  27.331  0.00  0.00    -0.260 OA
ATOM      3  N   UNL     1      53.233 151.986  25.756  0.00  0.00    -0.120 N 
ATOM      4  C   UNL     1      54.083 152.330  24.691  0.00  0.00    +0.188 C 
ATOM      5  N   UNL     1      53.717 152.782  23.544  0.00  0.00    -0.281 NA
ATOM      6  H   UNL     1      54.393 152.995  22.860  0.00  0.00    +0.188 HD
ENDROOT
BRANCH   1   7
ATOM      7  C   UNL     1      52.362 154.339  26.020  0.00  0.00    +0.406 C 
ATOM      8  O   UNL     1      52.885 154.821  24.988  0.00  0.00    -0.239 OA
BRANCH   7   9
ATOM      9  O   UNL     1      51.706 155.268  26.844  0.00  0.00    -0.371 OA
BRANCH   9  10
ATOM     10  C   UNL     1      52.415 156.273  27.476  0.00  0.00    +0.425 C 
ATOM     11  O   UNL     1      53.555 156.641  27.051  0.00  0.00    -0.224 OA
BRANCH  10  12
ATOM     12  N   UNL     1      51.890 156.941  28.639  0.00  0.00    -0.197 NA
ATOM     13  H   UNL     1      52.411 157.654  29.074  0.00  0.00    +0.176 HD
ENDBRANCH  10  12
ENDBRANCH   9  10
ENDBRANCH   7   9
ENDBRANCH   1   7
BRANCH   3  14
ATOM     14  O   UNL     1      53.247 150.683  26.153  0.00  0.00    -0.286 OA
ATOM     15  H   UNL     1      52.627 150.563  26.889  0.00  0.00    +0.242 HD
ENDBRANCH   3  14
TORSDOF 5
