REMARK  Name = =
REMARK  3 active torsions:
REMARK  status: ('A' for Active; 'I' for Inactive)
REMARK    1  A    between atoms: C_1  and  N_11
REMARK    2  A    between atoms: C_1  and  N_20
REMARK    3  A    between atoms: N_22  and  C_23
REMARK                            x       y       z     vdW  Elec       q    Type
REMARK                         _______ _______ _______ _____ _____    ______ ____
ROOT
ATOM      1  C   UNL     1      51.039 160.608  31.128  0.00  0.00    +0.125 C 
ATOM      2  C   UNL     1      50.788 159.519  30.424  0.00  0.00    -0.013 C 
ATOM      3  C   UNL     1      49.621 158.647  30.662  0.00  0.00    +0.021 C 
ATOM      4  C   UNL     1      49.789 157.238  30.298  0.00  0.00    +0.004 C 
ATOM      5  C   UNL     1      48.542 156.806  29.597  0.00  0.00    +0.000 C 
ATOM      6  C   UNL     1      48.083 158.090  28.933  0.00  0.00    +0.000 C 
ATOM      7  C   UNL     1      48.365 159.118  30.009  0.00  0.00    +0.004 C 
ATOM      8  C   UNL     1      51.053 156.782  29.714  0.00  0.00    +0.001 C 
ATOM      9  C   UNL     1      52.221 157.730  29.810  0.00  0.00    +0.004 C 
ATOM     10  C   UNL     1      51.679 159.080  29.319  0.00  0.00    +0.025 C 
ENDROOT
BRANCH   1  11
ATOM     11  N   UNL     1      52.126 161.481  30.960  0.00  0.00    -0.295 N 
ATOM     12  C   UNL     1      53.519 161.165  31.088  0.00  0.00    +0.074 C 
ATOM     13  C   UNL     1      54.150 161.926  29.993  0.00  0.00    +0.020 C 
ATOM     14  C   UNL     1      53.303 163.149  29.855  0.00  0.00    +0.023 C 
ATOM     15  C   UNL     1      52.032 162.879  30.632  0.00  0.00    +0.092 C 
ATOM     16  C   UNL     1      55.604 162.153  30.068  0.00  0.00    +0.002 C 
ATOM     17  C   UNL     1      56.244 161.910  31.391  0.00  0.00    +0.000 C 
ATOM     18  C   UNL     1      55.314 162.150  32.549  0.00  0.00    +0.002 C 
ATOM     19  C   UNL     1      54.042 161.385  32.456  0.00  0.00    +0.020 C 
ENDBRANCH   1  11
BRANCH   1  20
ATOM     20  N   UNL     1      50.113 160.951  32.182  0.00  0.00    -0.214 NA
ATOM     21  C   UNL     1      50.492 160.780  33.406  0.00  0.00    +0.166 C 
ATOM     22  N   UNL     1      49.551 161.131  34.417  0.00  0.00    -0.289 N 
ATOM     23  H   UNL     1      49.774 160.985  35.365  0.00  0.00    +0.154 HD
BRANCH  22  24
ATOM     24  C   UNL     1      48.291 161.691  34.065  0.00  0.00    +0.106 C 
ATOM     25  S   UNL     1      47.148 160.904  33.238  0.00  0.00    -0.033 S 
ENDBRANCH  22  24
ENDBRANCH   1  20
TORSDOF 3
