REMARK  Name = =
REMARK  8 active torsions:
REMARK  status: ('A' for Active; 'I' for Inactive)
REMARK    1  A    between atoms: S_1  and  S_21
REMARK    2  A    between atoms: C_2  and  P_6
REMARK    3  A    between atoms: P_6  and  O_9
REMARK    4  A    between atoms: P_6  and  C_11
REMARK    5  A    between atoms: C_11  and  O_13
REMARK    6  A    between atoms: O_13  and  N_14
REMARK    7  A    between atoms: S_21  and  N_22
REMARK    8  A    between atoms: S_21  and  C_34
REMARK                            x       y       z     vdW  Elec       q    Type
REMARK                         _______ _______ _______ _____ _____    ______ ____
ROOT
ATOM      1  S   UNL     1     -19.688 -42.557  26.213  0.00  0.00    -0.155 S 
ATOM      2  C   UNL     1     -21.031 -41.763  25.592  0.00  0.00    +0.120 C 
ATOM      3  C   UNL     1     -20.383 -41.174  24.319  0.00  0.00    +0.108 C 
ATOM      4  N   UNL     1     -19.662 -42.202  23.676  0.00  0.00    -0.206 NA
ATOM      5  C   UNL     1     -19.317 -43.273  24.606  0.00  0.00    +0.136 C 
ATOM      6  H   UNL     1     -19.841 -43.359  27.301  0.00  0.00    +0.096 HD
ENDROOT
BRANCH   2   7
ATOM      7  P   UNL     1     -22.035 -40.695  26.528  0.00  0.00    +0.190 P 
ATOM      8  O   UNL     1     -21.813 -41.774  27.488  0.00  0.00    -0.186 OA
ATOM      9  H   UNL     1     -21.635 -39.366  26.156  0.00  0.00    +0.118 HD
BRANCH   7  10
ATOM     10  O   UNL     1     -22.770 -39.667  25.349  0.00  0.00    -0.352 OA
ATOM     11  H   UNL     1     -23.526 -40.123  24.949  0.00  0.00    +0.217 HD
ENDBRANCH   7  10
BRANCH   7  12
ATOM     12  C   UNL     1     -23.606 -41.150  27.194  0.00  0.00    +0.391 C 
ATOM     13  O   UNL     1     -23.979 -40.551  28.216  0.00  0.00    -0.239 OA
BRANCH  12  14
ATOM     14  O   UNL     1     -24.438 -42.104  26.662  0.00  0.00    -0.331 OA
BRANCH  14  15
ATOM     15  N   UNL     1     -25.809 -42.102  26.734  0.00  0.00    -0.072 N 
ATOM     16  C   UNL     1     -26.445 -42.456  27.848  0.00  0.00    +0.209 C 
ATOM     17  N   UNL     1     -27.795 -42.456  27.921  0.00  0.00    -0.223 NA
ATOM     18  C   UNL     1     -28.526 -42.090  26.847  0.00  0.00    +0.105 C 
ATOM     19  C   UNL     1     -27.915 -41.724  25.697  0.00  0.00    +0.082 C 
ATOM     20  C   UNL     1     -26.511 -41.735  25.654  0.00  0.00    +0.287 C 
ATOM     21  O   UNL     1     -25.970 -41.390  24.575  0.00  0.00    -0.267 OA
ENDBRANCH  14  15
ENDBRANCH  12  14
ENDBRANCH   7  12
ENDBRANCH   2   7
BRANCH   1  22
ATOM     22  S   UNL     1     -18.331 -41.437  26.881  0.00  0.00    -0.059 S 
ATOM     23  H   UNL     1     -18.636 -40.124  26.699  0.00  0.00    +0.125 HD
BRANCH  22  24
ATOM     24  N   UNL     1     -16.927 -41.824  26.192  0.00  0.00    -0.251 N 
ATOM     25  C   UNL     1     -16.574 -41.645  24.772  0.00  0.00    +0.144 C 
ATOM     26  N   UNL     1     -16.516 -43.022  24.250  0.00  0.00    -0.282 NA
ATOM     27  C   UNL     1     -15.749 -42.842  23.042  0.00  0.00    +0.070 C 
ATOM     28  C   UNL     1     -14.639 -41.910  23.484  0.00  0.00    +0.025 C 
ATOM     29  C   UNL     1     -15.076 -41.347  24.813  0.00  0.00    +0.059 C 
ATOM     30  C   UNL     1     -14.653 -42.178  25.971  0.00  0.00    -0.005 C 
ATOM     31  C   UNL     1     -15.755 -42.427  26.770  0.00  0.00    +0.054 C 
ATOM     32  C   UNL     1     -15.550 -43.178  27.906  0.00  0.00    +0.015 C 
ATOM     33  C   UNL     1     -14.314 -43.656  28.228  0.00  0.00    +0.001 C 
ATOM     34  C   UNL     1     -13.215 -43.394  27.408  0.00  0.00    -0.000 C 
ATOM     35  C   UNL     1     -13.384 -42.643  26.260  0.00  0.00    -0.003 C 
ATOM     36  H   UNL     1     -17.448 -43.383  24.049  0.00  0.00    +0.125 HD
ENDBRANCH  22  24
BRANCH  22  37
ATOM     37  C   UNL     1     -18.134 -41.967  28.465  0.00  0.00    +0.136 C 
ATOM     38  N   UNL     1     -17.973 -42.340  29.587  0.00  0.00    -0.183 NA
ENDBRANCH  22  37
ENDBRANCH   1  22
TORSDOF 8
REMARK  Name = =
REMARK  8 active torsions:
REMARK  status: ('A' for Active; 'I' for Inactive)
REMARK    1  A    between atoms: S_1  and  S_21
REMARK    2  A    between atoms: C_2  and  P_6
REMARK    3  A    between atoms: P_6  and  O_9
REMARK    4  A    between atoms: P_6  and  C_11
REMARK    5  A    between atoms: C_11  and  O_13
REMARK    6  A    between atoms: O_13  and  N_14
REMARK    7  A    between atoms: S_21  and  N_22
REMARK    8  A    between atoms: S_21  and  C_34
REMARK                            x       y       z     vdW  Elec       q    Type
REMARK                         _______ _______ _______ _____ _____    ______ ____
ROOT
ATOM      1  O   HOH     1     -21.265 -39.745  27.641  0.00  0.00    -0.253 OA
ATOM      2  H   HOH     0     -20.295 -39.745  27.641  0.00  0.00    +0.253 HD
ENDROOT
TORSDOF 0
