REMARK  Name = =
REMARK  1 active torsions:
REMARK  status: ('A' for Active; 'I' for Inactive)
REMARK    1  A    between atoms: C_5  and  O_8
REMARK                            x       y       z     vdW  Elec       q    Type
REMARK                         _______ _______ _______ _____ _____    ______ ____
ROOT
ATOM      1  F   UNL     1      -4.575  -4.161  30.547  0.00  0.00    -0.204 F 
ATOM      2  C   UNL     1      -3.244  -4.266  30.340  0.00  0.00    +0.140 C 
ATOM      3  C   UNL     1      -2.617  -5.501  30.521  0.00  0.00    +0.033 C 
ATOM      4  C   UNL     1      -1.254  -5.573  30.301  0.00  0.00    +0.039 C 
ATOM      5  C   UNL     1      -0.505  -4.480  29.916  0.00  0.00    +0.134 C 
ATOM      6  C   UNL     1      -1.158  -3.264  29.744  0.00  0.00    +0.039 C 
ATOM      7  C   UNL     1      -2.514  -3.162  29.955  0.00  0.00    +0.033 C 
ENDROOT
BRANCH   5   8
ATOM      8  O   UNL     1       0.844  -4.651  29.721  0.00  0.00    -0.506 OA
ATOM      9  H   UNL     1       1.233  -5.493  29.851  0.00  0.00    +0.292 HD
ENDBRANCH   5   8
TORSDOF 1
