REMARK  Name = =
REMARK  2 active torsions:
REMARK  status: ('A' for Active; 'I' for Inactive)
REMARK    1  A    between atoms: C_3  and  N_8
REMARK    2  A    between atoms: C_5  and  O_14
REMARK                            x       y       z     vdW  Elec       q    Type
REMARK                         _______ _______ _______ _____ _____    ______ ____
ROOT
ATOM      1  F   UNL     1      -4.357  -4.119  30.577  0.00  0.00    -0.203 F 
ATOM      2  C   UNL     1      -3.069  -3.968  30.274  0.00  0.00    +0.154 C 
ATOM      3  C   UNL     1      -2.133  -4.916  30.608  0.00  0.00    +0.079 C 
ATOM      4  C   UNL     1      -0.828  -4.620  30.235  0.00  0.00    +0.053 C 
ATOM      5  C   UNL     1      -0.466  -3.470  29.576  0.00  0.00    +0.135 C 
ATOM      6  C   UNL     1      -1.424  -2.546  29.258  0.00  0.00    +0.039 C 
ATOM      7  C   UNL     1      -2.717  -2.794  29.604  0.00  0.00    +0.034 C 
ENDROOT
BRANCH   3   8
ATOM      8  N   UNL     1      -2.472  -6.144  31.291  0.00  0.00    -0.306 N 
ATOM      9  C   UNL     1      -1.356  -6.973  31.644  0.00  0.00    +0.091 C 
ATOM     10  C   UNL     1      -1.618  -8.121  32.538  0.00  0.00    +0.021 C 
ATOM     11  C   UNL     1      -3.027  -8.211  33.055  0.00  0.00    +0.004 C 
ATOM     12  C   UNL     1      -4.048  -7.770  32.065  0.00  0.00    +0.021 C 
ATOM     13  C   UNL     1      -3.855  -6.395  31.525  0.00  0.00    +0.091 C 
ENDBRANCH   3   8
BRANCH   5  14
ATOM     14  O   UNL     1       0.865  -3.248  29.236  0.00  0.00    -0.505 OA
ATOM     15  H   UNL     1       1.517  -3.884  29.456  0.00  0.00    +0.292 HD
ENDBRANCH   5  14
TORSDOF 2
