REMARK  Name = =
REMARK  1 active torsions:
REMARK  status: ('A' for Active; 'I' for Inactive)
REMARK    1  A    between atoms: C_2  and  C_13
REMARK                            x       y       z     vdW  Elec       q    Type
REMARK                         _______ _______ _______ _____ _____    ______ ____
ROOT
ATOM      1  C   UNL     1      -2.259  -4.139  30.557  0.00  0.00    +0.045 C 
ATOM      2  C   UNL     1      -1.895  -5.364  30.953  0.00  0.00    +0.038 C 
ATOM      3  C   UNL     1      -0.529  -5.766  30.687  0.00  0.00    +0.195 C 
ATOM      4  O   UNL     1      -0.150  -6.899  31.040  0.00  0.00    -0.287 OA
ATOM      5  C   UNL     1       0.449  -4.891  30.010  0.00  0.00    +0.042 C 
ATOM      6  C   UNL     1       0.053  -3.632  29.610  0.00  0.00    +0.042 C 
ATOM      7  C   UNL     1       0.950  -2.778  28.966  0.00  0.00    +0.003 C 
ATOM      8  C   UNL     1       2.243  -3.194  28.729  0.00  0.00    +0.000 C 
ATOM      9  C   UNL     1       2.613  -4.458  29.140  0.00  0.00    +0.000 C 
ATOM     10  C   UNL     1       1.739  -5.312  29.776  0.00  0.00    +0.003 C 
ATOM     11  C   UNL     1      -1.325  -3.245  29.886  0.00  0.00    +0.196 C 
ATOM     12  O   UNL     1      -1.681  -2.091  29.516  0.00  0.00    -0.287 OA
ENDROOT
BRANCH   2  13
ATOM     13  C   UNL     1      -2.876  -6.213  31.621  0.00  0.00    -0.015 C 
ATOM     14  C   UNL     1      -3.487  -7.288  31.159  0.00  0.00    -0.004 C 
ATOM     15  C   UNL     1      -4.394  -7.831  32.164  0.00  0.00    -0.005 C 
ATOM     16  C   UNL     1      -4.350  -7.095  33.261  0.00  0.00    -0.021 C 
ATOM     17  C   UNL     1      -3.384  -6.012  33.001  0.00  0.00    +0.052 C 
ENDBRANCH   2  13
TORSDOF 1
