REMARK  Name = =
REMARK  3 active torsions:
REMARK  status: ('A' for Active; 'I' for Inactive)
REMARK    1  A    between atoms: N_1  and  C_9
REMARK    2  A    between atoms: C_4  and  N_15
REMARK    3  A    between atoms: C_11  and  O_14
REMARK                            x       y       z     vdW  Elec       q    Type
REMARK                         _______ _______ _______ _____ _____    ______ ____
ROOT
ATOM      1  N   UNL     1       0.381  -4.257  29.287  0.00  0.00    -0.306 N 
ATOM      2  C   UNL     1       0.100  -2.967  29.880  0.00  0.00    +0.093 C 
ATOM      3  C   UNL     1      -1.389  -2.695  29.935  0.00  0.00    +0.043 C 
ATOM      4  C   UNL     1      -2.005  -3.918  30.629  0.00  0.00    +0.101 C 
ATOM      5  C   UNL     1      -1.877  -5.057  29.671  0.00  0.00    +0.043 C 
ATOM      6  C   UNL     1      -0.409  -5.428  29.580  0.00  0.00    +0.093 C 
ENDROOT
BRANCH   1   9
ATOM      7  F   UNL     1       0.110  -3.687  26.587  0.00  0.00    -0.203 F 
ATOM      8  C   UNL     1       1.314  -4.088  27.031  0.00  0.00    +0.154 C 
ATOM      9  C   UNL     1       1.471  -4.380  28.386  0.00  0.00    +0.079 C 
ATOM     10  C   UNL     1       2.727  -4.793  28.814  0.00  0.00    +0.053 C 
ATOM     11  C   UNL     1       3.797  -4.919  27.957  0.00  0.00    +0.135 C 
ATOM     12  C   UNL     1       3.587  -4.618  26.628  0.00  0.00    +0.039 C 
ATOM     13  C   UNL     1       2.365  -4.204  26.145  0.00  0.00    +0.034 C 
BRANCH  11  14
ATOM     14  O   UNL     1       5.058  -5.337  28.405  0.00  0.00    -0.505 OA
ATOM     15  H   UNL     1       5.190  -5.539  29.310  0.00  0.00    +0.292 HD
ENDBRANCH  11  14
ENDBRANCH   1   9
BRANCH   4  16
ATOM     16  N   UNL     1      -3.363  -3.648  31.035  0.00  0.00    -0.193 N 
ATOM     17  N   UNL     1      -3.713  -3.428  32.286  0.00  0.00    -0.154 NA
ATOM     18  C   UNL     1      -5.025  -3.208  32.363  0.00  0.00    +0.218 C 
ATOM     19  N   UNL     1      -5.488  -3.299  31.113  0.00  0.00    -0.203 NA
ATOM     20  C   UNL     1      -4.458  -3.570  30.294  0.00  0.00    +0.186 C 
ENDBRANCH   4  16
TORSDOF 3
