REMARK  Name = =
REMARK  4 active torsions:
REMARK  status: ('A' for Active; 'I' for Inactive)
REMARK    1  A    between atoms: C_3  and  N_8
REMARK    2  A    between atoms: C_5  and  O_19
REMARK    3  A    between atoms: C_11  and  N_14
REMARK    4  A    between atoms: O_19  and  S_20
REMARK                            x       y       z     vdW  Elec       q    Type
REMARK                         _______ _______ _______ _____ _____    ______ ____
ROOT
ATOM      1  F   UNL     1       5.727  -8.992  20.871  0.00  0.00    -0.203 F 
ATOM      2  C   UNL     1       4.839  -8.094  20.397  0.00  0.00    +0.154 C 
ATOM      3  C   UNL     1       4.450  -7.041  21.184  0.00  0.00    +0.079 C 
ATOM      4  C   UNL     1       3.534  -6.120  20.688  0.00  0.00    +0.055 C 
ATOM      5  C   UNL     1       3.006  -6.239  19.423  0.00  0.00    +0.154 C 
ATOM      6  C   UNL     1       3.424  -7.309  18.665  0.00  0.00    +0.041 C 
ATOM      7  C   UNL     1       4.324  -8.243  19.109  0.00  0.00    +0.034 C 
ENDROOT
BRANCH   3   8
ATOM      8  N   UNL     1       4.993  -6.916  22.491  0.00  0.00    -0.306 N 
ATOM      9  C   UNL     1       6.031  -5.923  22.666  0.00  0.00    +0.093 C 
ATOM     10  C   UNL     1       5.686  -5.081  23.863  0.00  0.00    +0.043 C 
ATOM     11  C   UNL     1       5.665  -6.019  25.074  0.00  0.00    +0.101 C 
ATOM     12  C   UNL     1       4.567  -7.047  24.927  0.00  0.00    +0.043 C 
ATOM     13  C   UNL     1       4.568  -7.720  23.600  0.00  0.00    +0.093 C 
BRANCH  11  14
ATOM     14  N   UNL     1       5.371  -5.252  26.278  0.00  0.00    -0.193 N 
ATOM     15  N   UNL     1       6.204  -4.689  27.120  0.00  0.00    -0.154 NA
ATOM     16  C   UNL     1       5.516  -4.076  28.098  0.00  0.00    +0.218 C 
ATOM     17  N   UNL     1       4.216  -4.286  27.823  0.00  0.00    -0.203 NA
ATOM     18  C   UNL     1       4.123  -5.012  26.697  0.00  0.00    +0.186 C 
ENDBRANCH  11  14
ENDBRANCH   3   8
BRANCH   5  19
ATOM     19  O   UNL     1       2.094  -5.359  18.870  0.00  0.00    -0.445 OA
BRANCH  19  20
ATOM     20  S   UNL     1       0.694  -6.005  18.054  0.00  0.00    -0.062 S 
ATOM     21  C   UNL     1      -0.277  -4.794  17.229  0.00  0.00    +0.101 C 
ATOM     22  C   UNL     1      -1.572  -5.322  16.762  0.00  0.00    +0.003 C 
ATOM     23  C   UNL     1      -2.258  -6.156  17.514  0.00  0.00    +0.065 C 
ATOM     24  N   UNL     1      -1.776  -6.571  18.783  0.00  0.00    -0.248 N 
ATOM     25  C   UNL     1      -0.376  -6.984  18.884  0.00  0.00    +0.150 C 
ATOM     26  C   UNL     1      -0.496  -6.872  20.390  0.00  0.00    +0.118 C 
ATOM     27  C   UNL     1      -1.953  -6.827  20.167  0.00  0.00    +0.233 C 
ATOM     28  O   UNL     1      -2.945  -6.964  20.916  0.00  0.00    -0.274 OA
ATOM     29  H   UNL     1       1.367  -6.822  17.200  0.00  0.00    +0.125 HD
ENDBRANCH  19  20
ENDBRANCH   5  19
TORSDOF 4
