REMARK  Name = =
REMARK  7 active torsions:
REMARK  status: ('A' for Active; 'I' for Inactive)
REMARK    1  A    between atoms: C_1  and  N_23
REMARK    2  A    between atoms: C_2  and  C_13
REMARK    3  A    between atoms: C_9  and  N_27
REMARK    4  A    between atoms: C_14  and  N_18
REMARK    5  A    between atoms: N_18  and  S_19
REMARK    6  A    between atoms: S_19  and  N_22
REMARK    7  A    between atoms: N_27  and  O_28
REMARK                            x       y       z     vdW  Elec       q    Type
REMARK                         _______ _______ _______ _____ _____    ______ ____
ROOT
ATOM      1  C   UNL     1       1.100  -3.780  28.012  0.00  0.00    +0.090 C 
ATOM      2  C   UNL     1       1.587  -4.983  27.863  0.00  0.00    +0.053 C 
ATOM      3  C   UNL     1       0.783  -6.074  28.470  0.00  0.00    +0.197 C 
ATOM      4  O   UNL     1       1.129  -7.266  28.406  0.00  0.00    -0.287 OA
ATOM      5  C   UNL     1      -0.477  -5.855  29.195  0.00  0.00    +0.044 C 
ATOM      6  C   UNL     1      -0.955  -4.588  29.330  0.00  0.00    +0.043 C 
ATOM      7  C   UNL     1      -2.147  -4.307  30.007  0.00  0.00    +0.005 C 
ATOM      8  C   UNL     1      -2.824  -5.378  30.537  0.00  0.00    +0.019 C 
ATOM      9  C   UNL     1      -2.352  -6.663  30.406  0.00  0.00    +0.078 C 
ATOM     10  C   UNL     1      -1.180  -6.908  29.737  0.00  0.00    +0.022 C 
ATOM     11  C   UNL     1      -0.189  -3.532  28.751  0.00  0.00    +0.209 C 
ATOM     12  O   UNL     1      -0.598  -2.364  28.857  0.00  0.00    -0.285 OA
ENDROOT
BRANCH   2  13
ATOM     13  C   UNL     1       2.866  -5.251  27.213  0.00  0.00    +0.001 C 
ATOM     14  C   UNL     1       3.136  -5.891  26.127  0.00  0.00    +0.062 C 
ATOM     15  C   UNL     1       4.628  -5.922  25.883  0.00  0.00    +0.011 C 
ATOM     16  C   UNL     1       5.209  -5.306  26.826  0.00  0.00    -0.020 C 
ATOM     17  C   UNL     1       4.165  -4.821  27.769  0.00  0.00    +0.054 C 
BRANCH  14  18
ATOM     18  N   UNL     1       2.353  -6.569  25.150  0.00  0.00    -0.206 N 
ATOM     19  H   UNL     1       1.810  -6.049  24.515  0.00  0.00    +0.175 HD
BRANCH  18  20
ATOM     20  S   UNL     1       2.345  -8.274  25.068  0.00  0.00    +0.107 S 
ATOM     21  O   UNL     1       1.992  -8.691  23.662  0.00  0.00    -0.138 OA
ATOM     22  O   UNL     1       3.778  -8.735  25.297  0.00  0.00    -0.138 OA
BRANCH  20  23
ATOM     23  N   UNL     1       1.373  -9.057  26.225  0.00  0.00    -0.191 NA
ATOM     24  H   UNL     1       1.642  -8.749  27.159  0.00  0.00    +0.146 HD
ATOM     25  H   UNL     1       1.501 -10.066  26.150  0.00  0.00    +0.146 HD
ENDBRANCH  20  23
ENDBRANCH  18  20
ENDBRANCH  14  18
ENDBRANCH   2  13
BRANCH   1  26
ATOM     26  N   UNL     1       1.665  -2.563  27.526  0.00  0.00    -0.305 N 
ATOM     27  C   UNL     1       1.526  -2.049  26.135  0.00  0.00    +0.093 C 
ATOM     28  C   UNL     1       1.425  -0.665  26.759  0.00  0.00    +0.043 C 
ATOM     29  C   UNL     1       2.331  -1.349  27.809  0.00  0.00    +0.093 C 
ENDBRANCH   1  26
BRANCH   9  30
ATOM     30  N   UNL     1      -3.108  -7.716  30.980  0.00  0.00    -0.267 N 
ATOM     31  H   UNL     1      -2.778  -8.640  30.897  0.00  0.00    +0.194 HD
BRANCH  30  32
ATOM     32  O   UNL     1      -4.262  -7.492  31.634  0.00  0.00    -0.289 OA
ATOM     33  H   UNL     1      -4.455  -6.541  31.633  0.00  0.00    +0.244 HD
ENDBRANCH  30  32
ENDBRANCH   9  30
TORSDOF 7
