REMARK  Name = =
REMARK  6 active torsions:
REMARK  status: ('A' for Active; 'I' for Inactive)
REMARK    1  A    between atoms: C_3  and  N_8
REMARK    2  A    between atoms: C_5  and  O_23
REMARK    3  A    between atoms: C_7  and  N_19
REMARK    4  A    between atoms: C_11  and  N_14
REMARK    5  A    between atoms: N_19  and  S_20
REMARK    6  A    between atoms: O_23  and  S_24
REMARK                            x       y       z     vdW  Elec       q    Type
REMARK                         _______ _______ _______ _____ _____    ______ ____
ROOT
ATOM      1  F   UNL     1       4.374  -8.000  18.311  0.00  0.00    -0.202 F 
ATOM      2  C   UNL     1       4.504  -8.059  19.654  0.00  0.00    +0.168 C 
ATOM      3  C   UNL     1       3.389  -7.938  20.449  0.00  0.00    +0.080 C 
ATOM      4  C   UNL     1       3.441  -7.987  21.826  0.00  0.00    +0.055 C 
ATOM      5  C   UNL     1       4.646  -8.163  22.467  0.00  0.00    +0.155 C 
ATOM      6  C   UNL     1       5.779  -8.286  21.660  0.00  0.00    +0.056 C 
ATOM      7  C   UNL     1       5.720  -8.236  20.288  0.00  0.00    +0.096 C 
ENDROOT
BRANCH   3   8
ATOM      8  N   UNL     1       2.101  -7.752  19.854  0.00  0.00    -0.306 N 
ATOM      9  C   UNL     1       1.862  -6.537  19.126  0.00  0.00    +0.093 C 
ATOM     10  C   UNL     1       0.433  -6.085  19.167  0.00  0.00    +0.043 C 
ATOM     11  C   UNL     1      -0.450  -7.299  18.905  0.00  0.00    +0.101 C 
ATOM     12  C   UNL     1      -0.286  -8.228  20.072  0.00  0.00    +0.043 C 
ATOM     13  C   UNL     1       1.132  -8.800  20.024  0.00  0.00    +0.093 C 
BRANCH  11  14
ATOM     14  N   UNL     1      -1.829  -6.934  18.690  0.00  0.00    -0.193 N 
ATOM     15  N   UNL     1      -2.899  -7.210  19.419  0.00  0.00    -0.154 NA
ATOM     16  C   UNL     1      -3.987  -6.671  18.849  0.00  0.00    +0.218 C 
ATOM     17  N   UNL     1      -3.575  -6.040  17.731  0.00  0.00    -0.203 NA
ATOM     18  C   UNL     1      -2.241  -6.203  17.634  0.00  0.00    +0.186 C 
ENDBRANCH  11  14
ENDBRANCH   3   8
BRANCH   7  19
ATOM     19  N   UNL     1       6.907  -8.370  19.503  0.00  0.00    -0.219 N 
ATOM     20  H   UNL     1       6.800  -8.604  18.553  0.00  0.00    +0.173 HD
BRANCH  19  21
ATOM     21  S   UNL     1       8.493  -8.156  20.087  0.00  0.00    +0.033 S 
ATOM     22  O   UNL     1       8.660  -7.034  21.050  0.00  0.00    -0.158 OA
ATOM     23  O   UNL     1       9.435  -8.046  18.921  0.00  0.00    -0.158 OA
ATOM     24  H   UNL     1       8.794  -9.257  20.827  0.00  0.00    +0.233 HD
ENDBRANCH  19  21
ENDBRANCH   7  19
BRANCH   5  25
ATOM     25  O   UNL     1       4.707  -8.213  23.840  0.00  0.00    -0.445 OA
BRANCH  25  26
ATOM     26  S   UNL     1       5.045  -7.008  24.864  0.00  0.00    -0.062 S 
ATOM     27  C   UNL     1       3.799  -6.146  25.823  0.00  0.00    +0.101 C 
ATOM     28  C   UNL     1       4.408  -5.082  26.615  0.00  0.00    +0.003 C 
ATOM     29  C   UNL     1       5.623  -5.109  27.129  0.00  0.00    +0.060 C 
ATOM     30  N   UNL     1       6.450  -6.223  26.933  0.00  0.00    -0.274 N 
ATOM     31  C   UNL     1       6.059  -7.479  26.330  0.00  0.00    +0.158 C 
ATOM     32  C   UNL     1       7.509  -7.676  25.902  0.00  0.00    +0.086 C 
ATOM     33  C   UNL     1       7.740  -6.787  27.085  0.00  0.00    +0.215 C 
ATOM     34  O   UNL     1       8.733  -6.677  27.837  0.00  0.00    -0.202 OA
ATOM     35  H   UNL     1       5.558  -6.255  23.854  0.00  0.00    +0.125 HD
ENDBRANCH  25  26
ENDBRANCH   5  25
TORSDOF 6
