REMARK  Name = =
REMARK  0 active torsions:
REMARK  status: ('A' for Active; 'I' for Inactive)
REMARK                            x       y       z     vdW  Elec       q    Type
REMARK                         _______ _______ _______ _____ _____    ______ ____
ROOT
ATOM      1  N   UNL     1      -4.175  -3.240  31.310  0.00  0.00    -0.248 N 
ATOM      2  C   UNL     1      -4.699  -3.808  32.504  0.00  0.00    +0.252 C 
ATOM      3  O   UNL     1      -5.548  -3.278  33.283  0.00  0.00    -0.270 OA
ATOM      4  C   UNL     1      -4.050  -5.108  32.621  0.00  0.00    +0.058 C 
ATOM      5  C   UNL     1      -3.185  -5.335  31.578  0.00  0.00    +0.058 C 
ATOM      6  C   UNL     1      -2.445  -6.513  31.470  0.00  0.00    +0.005 C 
ATOM      7  C   UNL     1      -2.567  -7.498  32.426  0.00  0.00    +0.000 C 
ATOM      8  C   UNL     1      -3.435  -7.270  33.472  0.00  0.00    +0.000 C 
ATOM      9  C   UNL     1      -4.167  -6.106  33.582  0.00  0.00    +0.005 C 
ATOM     10  C   UNL     1      -3.254  -4.146  30.728  0.00  0.00    +0.252 C 
ATOM     11  O   UNL     1      -2.626  -3.935  29.672  0.00  0.00    -0.270 OA
ATOM     12  H   UNL     1      -4.414  -2.357  30.946  0.00  0.00    +0.158 HD
ENDROOT
TORSDOF 0
