REMARK  Name = =
REMARK  0 active torsions:
REMARK  status: ('A' for Active; 'I' for Inactive)
REMARK                            x       y       z     vdW  Elec       q    Type
REMARK                         _______ _______ _______ _____ _____    ______ ____
ROOT
ATOM      1  C   UNL     1      -4.314  -4.275  30.732  0.00  0.00    +0.033 C 
ATOM      2  C   UNL     1      -2.830  -4.377  30.706  0.00  0.00    +0.059 C 
ATOM      3  N   UNL     1      -2.717  -2.961  30.304  0.00  0.00    -0.274 NA
ATOM      4  C   UNL     1      -1.422  -2.909  29.680  0.00  0.00    +0.072 C 
ATOM      5  C   UNL     1      -1.102  -4.088  29.190  0.00  0.00    +0.019 C 
ATOM      6  C   UNL     1      -2.218  -5.009  29.478  0.00  0.00    +0.017 C 
ATOM      7  C   UNL     1      -4.037  -2.777  30.880  0.00  0.00    +0.073 C 
ENDROOT
TORSDOF 0
