REMARK  Name = =
REMARK  2 active torsions:
REMARK  status: ('A' for Active; 'I' for Inactive)
REMARK    1  A    between atoms: C_1  and  N_8
REMARK    2  A    between atoms: C_2  and  N_19
REMARK                            x       y       z     vdW  Elec       q    Type
REMARK                         _______ _______ _______ _____ _____    ______ ____
ROOT
ATOM      1  C   UNL     1      -4.727  -2.054  31.372  0.00  0.00    +0.112 C 
ATOM      2  C   UNL     1      -5.902  -1.495  31.788  0.00  0.00    +0.144 C 
ATOM      3  N   UNL     1      -6.172  -0.221  31.478  0.00  0.00    -0.198 NA
ATOM      4  C   UNL     1      -5.332   0.554  30.766  0.00  0.00    +0.215 C 
ATOM      5  N   UNL     1      -4.183   0.035  30.351  0.00  0.00    -0.211 NA
ATOM      6  C   UNL     1      -3.874  -1.256  30.646  0.00  0.00    +0.120 C 
ATOM      7  N   UNL     1      -5.705   1.907  30.482  0.00  0.00    -0.327 N 
ATOM      8  H   UNL     1      -6.566   2.259  30.806  0.00  0.00    +0.145 HD
ATOM      9  H   UNL     1      -5.101   2.486  29.963  0.00  0.00    +0.145 HD
ENDROOT
BRANCH   1  10
ATOM     10  N   UNL     1      -4.437  -3.396  31.696  0.00  0.00    -0.197 N 
ATOM     11  C   UNL     1      -4.232  -3.935  32.997  0.00  0.00    +0.259 C 
ATOM     12  O   UNL     1      -4.269  -3.324  34.106  0.00  0.00    -0.269 OA
ATOM     13  C   UNL     1      -3.962  -5.360  32.845  0.00  0.00    +0.059 C 
ATOM     14  C   UNL     1      -3.993  -5.726  31.498  0.00  0.00    +0.059 C 
ATOM     15  C   UNL     1      -3.768  -7.023  31.095  0.00  0.00    +0.005 C 
ATOM     16  C   UNL     1      -3.505  -7.997  32.028  0.00  0.00    +0.000 C 
ATOM     17  C   UNL     1      -3.469  -7.664  33.384  0.00  0.00    +0.000 C 
ATOM     18  C   UNL     1      -3.694  -6.372  33.764  0.00  0.00    +0.005 C 
ATOM     19  C   UNL     1      -4.291  -4.494  30.771  0.00  0.00    +0.259 C 
ATOM     20  O   UNL     1      -4.393  -4.455  29.521  0.00  0.00    -0.269 OA
ENDBRANCH   1  10
BRANCH   2  21
ATOM     21  N   UNL     1      -6.822  -2.256  32.537  0.00  0.00    -0.342 N 
ATOM     22  H   UNL     1      -6.618  -3.193  32.762  0.00  0.00    +0.144 HD
ATOM     23  H   UNL     1      -7.668  -1.851  32.835  0.00  0.00    +0.144 HD
ENDBRANCH   2  21
TORSDOF 2
