REMARK  Name = =
REMARK  1 active torsions:
REMARK  status: ('A' for Active; 'I' for Inactive)
REMARK    1  A    between atoms: C_1  and  C_18
REMARK                            x       y       z     vdW  Elec       q    Type
REMARK                         _______ _______ _______ _____ _____    ______ ____
ROOT
ATOM      1  C   UNL     1     -12.709  -5.254  21.966  0.00  0.00    +0.015 C 
ATOM      2  C   UNL     1     -11.852  -5.216  23.186  0.00  0.00    +0.005 C 
ATOM      3  C   UNL     1     -11.054  -6.530  23.184  0.00  0.00    +0.018 C 
ATOM      4  C   UNL     1     -11.967  -7.604  23.629  0.00  0.00    +0.004 C 
ATOM      5  C   UNL     1     -13.401  -7.321  23.239  0.00  0.00    +0.000 C 
ATOM      6  C   UNL     1     -13.530  -6.515  21.986  0.00  0.00    +0.001 C 
ATOM      7  C   UNL     1      -9.770  -6.416  23.879  0.00  0.00    -0.045 C 
ATOM      8  C   UNL     1      -9.442  -7.035  25.002  0.00  0.00    -0.009 C 
ATOM      9  C   UNL     1      -8.766  -5.503  23.222  0.00  0.00    +0.022 C 
ATOM     10  C   UNL     1      -9.574  -4.461  22.470  0.00  0.00    +0.004 C 
ATOM     11  C   UNL     1     -10.851  -4.113  23.244  0.00  0.00    +0.001 C 
ENDROOT
BRANCH   1  18
ATOM     12  C   UNL     1     -14.459  -4.261  20.531  0.00  0.00    +0.032 C 
ATOM     13  C   UNL     1     -13.268  -3.585  19.839  0.00  0.00    +0.059 C 
ATOM     14  N   UNL     1     -13.058  -2.915  21.147  0.00  0.00    -0.275 NA
ATOM     15  C   UNL     1     -12.481  -1.676  20.786  0.00  0.00    +0.072 C 
ATOM     16  C   UNL     1     -12.848  -1.329  19.563  0.00  0.00    +0.019 C 
ATOM     17  C   UNL     1     -13.751  -2.399  19.020  0.00  0.00    +0.017 C 
ATOM     18  C   UNL     1     -13.628  -4.092  21.797  0.00  0.00    +0.059 C 
ENDBRANCH   1  18
TORSDOF 1
