REMARK  Name = =
REMARK  2 active torsions:
REMARK  status: ('A' for Active; 'I' for Inactive)
REMARK    1  A    between atoms: C_1  and  C_18
REMARK    2  A    between atoms: C_1  and  C_19
REMARK                            x       y       z     vdW  Elec       q    Type
REMARK                         _______ _______ _______ _____ _____    ______ ____
ROOT
ATOM      1  C   UNL     1     -11.006   3.368  18.944  0.00  0.00    +0.014 C 
ATOM      2  C   UNL     1     -11.473   3.046  20.334  0.00  0.00    +0.005 C 
ATOM      3  C   UNL     1     -10.758   1.902  20.936  0.00  0.00    +0.018 C 
ATOM      4  C   UNL     1     -11.300   0.636  20.255  0.00  0.00    +0.004 C 
ATOM      5  C   UNL     1     -11.090   0.852  18.780  0.00  0.00    +0.000 C 
ATOM      6  C   UNL     1     -10.276   2.087  18.467  0.00  0.00    +0.001 C 
ATOM      7  C   UNL     1     -10.925   1.716  22.364  0.00  0.00    -0.045 C 
ATOM      8  C   UNL     1     -10.268   0.779  23.014  0.00  0.00    -0.009 C 
ATOM      9  C   UNL     1     -11.855   2.594  23.121  0.00  0.00    +0.022 C 
ATOM     10  C   UNL     1     -11.542   4.004  22.677  0.00  0.00    +0.004 C 
ATOM     11  C   UNL     1     -11.921   4.117  21.206  0.00  0.00    +0.001 C 
ENDROOT
BRANCH   1  18
ATOM     12  C   UNL     1     -13.116   2.468  17.776  0.00  0.00    +0.032 C 
ATOM     13  C   UNL     1     -13.918   3.234  18.754  0.00  0.00    +0.059 C 
ATOM     14  N   UNL     1     -13.195   4.438  18.280  0.00  0.00    -0.275 NA
ATOM     15  C   UNL     1     -14.138   5.482  18.504  0.00  0.00    +0.072 C 
ATOM     16  C   UNL     1     -15.372   5.031  18.586  0.00  0.00    +0.019 C 
ATOM     17  C   UNL     1     -15.365   3.528  18.411  0.00  0.00    +0.017 C 
ATOM     18  C   UNL     1     -12.097   3.561  17.965  0.00  0.00    +0.059 C 
ENDBRANCH   1  18
BRANCH   1  19
ATOM     19  C   UNL     1      -9.990   4.460  18.953  0.00  0.00    +0.009 C 
ATOM     20  C   UNL     1     -10.212   5.614  18.059  0.00  0.00    +0.008 C 
ATOM     21  C   UNL     1      -8.950   5.792  17.208  0.00  0.00    +0.065 C 
ATOM     22  C   UNL     1      -7.900   5.066  17.927  0.00  0.00    +0.151 C 
ATOM     23  O   UNL     1      -6.709   5.325  17.920  0.00  0.00    -0.296 OA
ATOM     24  C   UNL     1      -8.595   3.957  18.659  0.00  0.00    +0.065 C 
ENDBRANCH   1  19
TORSDOF 2
