REMARK  Name = =
REMARK  3 active torsions:
REMARK  status: ('A' for Active; 'I' for Inactive)
REMARK    1  A    between atoms: S_1  and  C_4
REMARK    2  A    between atoms: S_1  and  N_10
REMARK    3  A    between atoms: N_10  and  S_11
REMARK                            x       y       z     vdW  Elec       q    Type
REMARK                         _______ _______ _______ _____ _____    ______ ____
ROOT
ATOM      1  S   UNL     1      53.118 155.208  25.241  0.00  0.00    +0.068 S 
ATOM      2  O   UNL     1      52.652 156.527  24.691  0.00  0.00    -0.152 OA
ATOM      3  O   UNL     1      52.621 154.103  24.356  0.00  0.00    -0.152 OA
ENDROOT
BRANCH   1   4
ATOM      4  C   UNL     1      52.597 154.990  26.904  0.00  0.00    +0.123 C 
ATOM      5  C   UNL     1      52.340 156.061  27.735  0.00  0.00    +0.020 C 
ATOM      6  C   UNL     1      51.931 155.872  29.039  0.00  0.00    +0.001 C 
ATOM      7  C   UNL     1      51.757 154.616  29.581  0.00  0.00    +0.000 C 
ATOM      8  C   UNL     1      52.013 153.544  28.754  0.00  0.00    +0.001 C 
ATOM      9  C   UNL     1      52.422 153.736  27.451  0.00  0.00    +0.020 C 
ENDBRANCH   1   4
BRANCH   1  10
ATOM     10  N   UNL     1      54.852 155.242  25.191  0.00  0.00    -0.136 NA
ATOM     11  H   UNL     1      55.190 154.390  24.744  0.00  0.00    +0.162 HD
BRANCH  10  12
ATOM     12  S   UNL     1      55.426 156.642  24.279  0.00  0.00    -0.076 S 
ATOM     13  H   UNL     1      54.978 157.782  24.870  0.00  0.00    +0.121 HD
ENDBRANCH  10  12
ENDBRANCH   1  10
TORSDOF 3
