REMARK  Name = =
REMARK  4 active torsions:
REMARK  status: ('A' for Active; 'I' for Inactive)
REMARK    1  A    between atoms: S_1  and  C_4
REMARK    2  A    between atoms: S_1  and  N_10
REMARK    3  A    between atoms: N_10  and  C_11
REMARK    4  A    between atoms: N_10  and  S_16
REMARK                            x       y       z     vdW  Elec       q    Type
REMARK                         _______ _______ _______ _____ _____    ______ ____
ROOT
ATOM      1  S   UNL     1      53.173 153.688  24.850  0.00  0.00    +0.072 S 
ATOM      2  O   UNL     1      53.364 152.916  23.553  0.00  0.00    -0.152 OA
ATOM      3  O   UNL     1      52.109 154.748  24.639  0.00  0.00    -0.152 OA
ENDROOT
BRANCH   1   4
ATOM      4  C   UNL     1      52.588 152.586  26.069  0.00  0.00    +0.123 C 
ATOM      5  C   UNL     1      52.149 152.987  27.312  0.00  0.00    +0.020 C 
ATOM      6  C   UNL     1      51.690 152.073  28.243  0.00  0.00    +0.001 C 
ATOM      7  C   UNL     1      51.666 150.721  27.936  0.00  0.00    +0.000 C 
ATOM      8  C   UNL     1      52.101 150.301  26.698  0.00  0.00    +0.001 C 
ATOM      9  C   UNL     1      52.560 151.240  25.776  0.00  0.00    +0.020 C 
ENDBRANCH   1   4
BRANCH   1  10
ATOM     10  N   UNL     1      54.688 154.384  25.250  0.00  0.00    -0.113 NA
BRANCH  10  11
ATOM     11  C   UNL     1      55.693 153.378  25.217  0.00  0.00    +0.091 C 
ATOM     12  C   UNL     1      55.601 152.417  26.396  0.00  0.00    +0.019 C 
ATOM     13  C   UNL     1      57.000 151.854  26.522  0.00  0.00    +0.002 C 
ATOM     14  C   UNL     1      57.881 152.651  25.595  0.00  0.00    +0.002 C 
ATOM     15  C   UNL     1      57.093 153.939  25.431  0.00  0.00    +0.019 C 
ENDBRANCH  10  11
BRANCH  10  16
ATOM     16  S   UNL     1      55.084 155.753  24.244  0.00  0.00    -0.072 S 
ATOM     17  H   UNL     1      54.087 156.675  24.320  0.00  0.00    +0.121 HD
ENDBRANCH  10  16
ENDBRANCH   1  10
TORSDOF 4
