REMARK  Name = =
REMARK  9 active torsions:
REMARK  status: ('A' for Active; 'I' for Inactive)
REMARK    1  A    between atoms: C_1  and  O_11
REMARK    2  A    between atoms: C_1  and  S_16
REMARK    3  A    between atoms: C_8  and  O_10
REMARK    4  A    between atoms: O_11  and  S_12
REMARK    5  A    between atoms: S_12  and  O_15
REMARK    6  A    between atoms: S_16  and  N_17
REMARK    7  A    between atoms: N_17  and  C_18
REMARK    8  A    between atoms: N_17  and  S_23
REMARK    9  A    between atoms: S_23  and  C_26
REMARK                            x       y       z     vdW  Elec       q    Type
REMARK                         _______ _______ _______ _____ _____    ______ ____
ROOT
ATOM      1  C   UNL     1      52.801 154.454  26.601  0.00  0.00    +0.235 C 
ATOM      2  C   UNL     1      53.937 154.081  25.717  0.00  0.00    +0.056 C 
ATOM      3  C   UNL     1      53.584 154.284  24.412  0.00  0.00    +0.138 C 
ATOM      4  O   UNL     1      52.297 154.768  24.381  0.00  0.00    -0.472 OA
ATOM      5  C   UNL     1      51.678 154.501  25.622  0.00  0.00    +0.251 C 
ATOM      6  C   UNL     1      54.526 153.986  23.417  0.00  0.00    +0.040 C 
ATOM      7  C   UNL     1      55.776 153.501  23.717  0.00  0.00    +0.040 C 
ATOM      8  C   UNL     1      56.135 153.295  25.038  0.00  0.00    +0.134 C 
ATOM      9  C   UNL     1      55.196 153.594  26.004  0.00  0.00    +0.039 C 
ENDROOT
BRANCH   8  10
ATOM     10  O   UNL     1      57.391 152.806  25.378  0.00  0.00    -0.506 OA
ATOM     11  H   UNL     1      58.015 152.609  24.707  0.00  0.00    +0.292 HD
ENDBRANCH   8  10
BRANCH   1  12
ATOM     12  O   UNL     1      52.705 153.531  27.591  0.00  0.00    -0.206 OA
BRANCH  12  13
ATOM     13  S   UNL     1      52.141 152.038  27.145  0.00  0.00    +0.104 S 
ATOM     14  O   UNL     1      51.075 152.145  26.084  0.00  0.00    -0.045 OA
ATOM     15  O   UNL     1      51.682 151.212  28.317  0.00  0.00    -0.045 OA
BRANCH  13  16
ATOM     16  O   UNL     1      53.424 151.197  26.451  0.00  0.00    -0.250 OA
ATOM     17  H   UNL     1      54.138 151.103  27.101  0.00  0.00    +0.245 HD
ENDBRANCH  13  16
ENDBRANCH  12  13
ENDBRANCH   1  12
BRANCH   1  18
ATOM     18  S   UNL     1      53.183 156.059  27.341  0.00  0.00    -0.008 S 
BRANCH  18  19
ATOM     19  N   UNL     1      51.837 156.665  28.310  0.00  0.00    -0.107 NA
BRANCH  19  20
ATOM     20  C   UNL     1      51.191 155.592  28.920  0.00  0.00    +0.091 C 
ATOM     21  C   UNL     1      51.852 155.118  30.168  0.00  0.00    +0.019 C 
ATOM     22  C   UNL     1      50.757 154.395  30.933  0.00  0.00    +0.002 C 
ATOM     23  C   UNL     1      49.528 154.436  30.060  0.00  0.00    +0.002 C 
ATOM     24  C   UNL     1      49.720 155.700  29.201  0.00  0.00    +0.019 C 
ENDBRANCH  19  20
BRANCH  19  25
ATOM     25  S   UNL     1      52.331 158.016  29.161  0.00  0.00    +0.072 S 
ATOM     26  O   UNL     1      53.603 157.793  29.959  0.00  0.00    -0.152 OA
ATOM     27  O   UNL     1      52.760 159.066  28.124  0.00  0.00    -0.152 OA
BRANCH  25  28
ATOM     28  C   UNL     1      51.127 158.811  30.131  0.00  0.00    +0.123 C 
ATOM     29  C   UNL     1      51.410 159.942  30.867  0.00  0.00    +0.020 C 
ATOM     30  C   UNL     1      50.427 160.538  31.620  0.00  0.00    +0.001 C 
ATOM     31  C   UNL     1      49.148 160.022  31.655  0.00  0.00    +0.000 C 
ATOM     32  C   UNL     1      48.866 158.893  30.919  0.00  0.00    +0.001 C 
ATOM     33  C   UNL     1      49.846 158.307  30.175  0.00  0.00    +0.020 C 
ENDBRANCH  25  28
ENDBRANCH  19  25
ENDBRANCH  18  19
ENDBRANCH   1  18
TORSDOF 9
