REMARK  Name = =
REMARK  10 active torsions:
REMARK  status: ('A' for Active; 'I' for Inactive)
REMARK    1  A    between atoms: N_1  and  C_2
REMARK    2  A    between atoms: N_1  and  S_18
REMARK    3  A    between atoms: N_1  and  S_27
REMARK    4  A    between atoms: C_4  and  C_7
REMARK    5  A    between atoms: S_18  and  C_21
REMARK    6  A    between atoms: S_27  and  C_28
REMARK    7  A    between atoms: C_28  and  O_38
REMARK    8  A    between atoms: C_35  and  O_37
REMARK    9  A    between atoms: O_38  and  S_39
REMARK   10  A    between atoms: S_39  and  O_42
REMARK                            x       y       z     vdW  Elec       q    Type
REMARK                         _______ _______ _______ _____ _____    ______ ____
ROOT
ATOM      1  N   UNL     1      51.641 156.717  29.240  0.00  0.00    -0.107 NA
ENDROOT
BRANCH   1   2
ATOM      2  C   UNL     1      52.110 155.396  29.400  0.00  0.00    +0.091 C 
ATOM      3  C   UNL     1      52.694 154.793  28.129  0.00  0.00    +0.023 C 
ATOM      4  C   UNL     1      52.576 153.324  28.485  0.00  0.00    +0.030 C 
ATOM      5  C   UNL     1      51.133 153.239  28.853  0.00  0.00    +0.006 C 
ATOM      6  C   UNL     1      50.950 154.485  29.726  0.00  0.00    +0.019 C 
BRANCH   4   7
ATOM      7  C   UNL     1      53.038 152.434  27.436  0.00  0.00    +0.054 C 
ATOM      8  C   UNL     1      54.118 152.785  26.653  0.00  0.00    +0.178 C 
ATOM      9  O   UNL     1      54.572 152.002  25.694  0.00  0.00    -0.451 OA
ATOM     10  C   UNL     1      54.034 150.848  25.424  0.00  0.00    +0.148 C 
ATOM     11  C   UNL     1      52.954 150.414  26.149  0.00  0.00    +0.073 C 
ATOM     12  C   UNL     1      52.352 149.186  25.887  0.00  0.00    +0.006 C 
ATOM     13  C   UNL     1      52.868 148.400  24.868  0.00  0.00    +0.000 C 
ATOM     14  C   UNL     1      53.952 148.804  24.118  0.00  0.00    +0.003 C 
ATOM     15  C   UNL     1      54.519 150.026  24.410  0.00  0.00    +0.038 C 
ATOM     16  C   UNL     1      52.460 151.223  27.162  0.00  0.00    +0.198 C 
ATOM     17  O   UNL     1      51.471 150.849  27.843  0.00  0.00    -0.287 OA
ENDBRANCH   4   7
ENDBRANCH   1   2
BRANCH   1  18
ATOM     18  S   UNL     1      52.799 157.543  28.219  0.00  0.00    +0.072 S 
ATOM     19  O   UNL     1      54.043 157.765  29.037  0.00  0.00    -0.152 OA
ATOM     20  O   UNL     1      52.214 158.930  27.989  0.00  0.00    -0.152 OA
BRANCH  18  21
ATOM     21  C   UNL     1      53.107 156.708  26.745  0.00  0.00    +0.123 C 
ATOM     22  C   UNL     1      52.139 155.892  26.207  0.00  0.00    +0.020 C 
ATOM     23  C   UNL     1      52.330 155.196  25.019  0.00  0.00    +0.001 C 
ATOM     24  C   UNL     1      53.554 155.355  24.378  0.00  0.00    +0.000 C 
ATOM     25  C   UNL     1      54.523 156.170  24.911  0.00  0.00    +0.001 C 
ATOM     26  C   UNL     1      54.313 156.858  26.104  0.00  0.00    +0.020 C 
ENDBRANCH  18  21
ENDBRANCH   1  18
BRANCH   1  27
ATOM     27  S   UNL     1      51.406 157.666  30.675  0.00  0.00    -0.008 S 
BRANCH  27  28
ATOM     28  C   UNL     1      50.603 159.248  30.384  0.00  0.00    +0.235 C 
ATOM     29  C   UNL     1      50.263 159.998  31.612  0.00  0.00    +0.056 C 
ATOM     30  C   UNL     1      50.623 161.318  31.400  0.00  0.00    +0.138 C 
ATOM     31  O   UNL     1      51.176 161.443  30.107  0.00  0.00    -0.472 OA
ATOM     32  C   UNL     1      51.752 160.162  29.865  0.00  0.00    +0.251 C 
ATOM     33  C   UNL     1      50.430 162.301  32.373  0.00  0.00    +0.040 C 
ATOM     34  C   UNL     1      49.866 161.971  33.586  0.00  0.00    +0.040 C 
ATOM     35  C   UNL     1      49.501 160.658  33.816  0.00  0.00    +0.134 C 
ATOM     36  C   UNL     1      49.704 159.710  32.838  0.00  0.00    +0.039 C 
BRANCH  35  37
ATOM     37  O   UNL     1      48.927 160.312  35.051  0.00  0.00    -0.506 OA
ATOM     38  H   UNL     1      48.795 160.968  35.707  0.00  0.00    +0.292 HD
ENDBRANCH  35  37
BRANCH  28  39
ATOM     39  O   UNL     1      49.686 159.283  29.382  0.00  0.00    -0.206 OA
BRANCH  39  40
ATOM     40  S   UNL     1      48.255 158.501  29.665  0.00  0.00    +0.104 S 
ATOM     41  O   UNL     1      47.533 159.078  30.881  0.00  0.00    -0.045 OA
ATOM     42  O   UNL     1      47.340 158.790  28.507  0.00  0.00    -0.045 OA
BRANCH  40  43
ATOM     43  O   UNL     1      48.381 156.842  29.783  0.00  0.00    -0.250 OA
ATOM     44  H   UNL     1      48.966 156.614  30.522  0.00  0.00    +0.245 HD
ENDBRANCH  40  43
ENDBRANCH  39  40
ENDBRANCH  28  39
ENDBRANCH  27  28
ENDBRANCH   1  27
TORSDOF 10
