MODEL 1
REMARK VINA RESULT:    -9.584      0.000      0.000
REMARK INTER + INTRA:          -9.643
REMARK INTER:                 -11.825
REMARK INTRA:                   2.181
REMARK UNBOUND:                 2.181
REMARK  Name = =
REMARK  4 active torsions:
REMARK  status: ('A' for Active; 'I' for Inactive)
REMARK    1  A    between atoms: C_3  and  C_35
REMARK    2  A    between atoms: C_5  and  C_8
REMARK    3  A    between atoms: C_5  and  N_19
REMARK    4  A    between atoms: N_23  and  N_27
REMARK                            x       y       z     vdW  Elec       q    Type
REMARK                         _______ _______ _______ _____ _____    ______ ____
ROOT
ATOM      1  N   UNL     1       2.074  -5.001  30.285  0.00  0.00    -0.255 N 
ATOM      2  C   UNL     1       1.474  -3.667  30.461  0.00  0.00    +0.096 C 
ATOM      3  C   UNL     1       0.675  -3.419  29.224  0.00  0.00    +0.024 C 
ATOM      4  C   UNL     1       0.461  -4.827  28.747  0.00  0.00    +0.046 C 
ATOM      5  C   UNL     1       1.897  -5.454  28.961  0.00  0.00    +0.165 C 
ATOM      6  C   UNL     1       2.694  -5.619  31.386  0.00  0.00    +0.304 C 
ATOM      7  O   UNL     1       2.727  -5.003  32.492  0.00  0.00    -0.265 OA
ENDROOT
BRANCH   5   8
ATOM      8  C   UNL     1       1.595  -6.871  28.745  0.00  0.00    +0.089 C 
ATOM      9  N   UNL     1       2.435  -7.625  28.050  0.00  0.00    -0.270 NA
ATOM     10  C   UNL     1       2.446  -9.001  27.664  0.00  0.00    +0.146 C 
ATOM     11  C   UNL     1       1.198  -9.453  26.935  0.00  0.00    +0.114 C 
ATOM     12  N   UNL     1       0.037  -9.426  27.781  0.00  0.00    -0.331 N 
ATOM     13  C   UNL     1      -0.332  -8.597  28.882  0.00  0.00    +0.046 C 
ATOM     14  C   UNL     1       0.379  -7.476  29.279  0.00  0.00    +0.029 C 
ATOM     15  C   UNL     1      -0.062  -6.743  30.352  0.00  0.00    +0.002 C 
ATOM     16  C   UNL     1      -1.219  -7.153  31.009  0.00  0.00    +0.000 C 
ATOM     17  C   UNL     1      -1.911  -8.271  30.599  0.00  0.00    +0.001 C 
ATOM     18  C   UNL     1      -1.472  -9.008  29.524  0.00  0.00    +0.014 C 
ATOM     19  H   UNL     1      -0.634 -10.112  27.558  0.00  0.00    +0.147 HD
ENDBRANCH   5   8
BRANCH   5  20
ATOM     20  N   UNL     1       2.544  -4.744  27.886  0.00  0.00    -0.210 N 
ATOM     21  C   UNL     1       1.859  -4.686  26.640  0.00  0.00    +0.250 C 
ATOM     22  O   UNL     1       0.812  -5.339  26.384  0.00  0.00    -0.273 OA
ATOM     23  C   UNL     1       2.430  -3.797  25.592  0.00  0.00    +0.175 C 
ATOM     24  N   UNL     1       3.019  -2.641  26.175  0.00  0.00    -0.200 NA
ATOM     25  C   UNL     1       4.087  -2.918  27.092  0.00  0.00    +0.175 C 
ATOM     26  C   UNL     1       3.791  -4.062  27.979  0.00  0.00    +0.250 C 
ATOM     27  O   UNL     1       4.594  -4.489  28.843  0.00  0.00    -0.273 OA
BRANCH  24  28
ATOM     28  N   UNL     1       3.269  -1.709  25.228  0.00  0.00    -0.214 NA
ATOM     29  C   UNL     1       4.588  -1.567  24.744  0.00  0.00    +0.110 C 
ATOM     30  C   UNL     1       4.632  -0.623  23.571  0.00  0.00    +0.113 C 
ATOM     31  N   UNL     1       3.363  -0.294  23.017  0.00  0.00    -0.269 N 
ATOM     32  C   UNL     1       2.132  -0.205  23.786  0.00  0.00    +0.113 C 
ATOM     33  C   UNL     1       2.476  -0.528  25.226  0.00  0.00    +0.110 C 
ATOM     34  C   UNL     1       3.277  -0.030  21.625  0.00  0.00    +0.303 C 
ATOM     35  O   UNL     1       2.181   0.266  21.081  0.00  0.00    -0.265 OA
ENDBRANCH  24  28
ENDBRANCH   5  20
BRANCH   3  36
ATOM     36  C   UNL     1      -0.600  -2.708  29.550  0.00  0.00    +0.003 C 
ATOM     37  C   UNL     1      -1.743  -3.566  29.952  0.00  0.00    +0.002 C 
ATOM     38  C   UNL     1      -2.915  -2.576  29.865  0.00  0.00    +0.019 C 
ATOM     39  C   UNL     1      -2.529  -1.622  28.764  0.00  0.00    +0.092 C 
ATOM     40  N   UNL     1      -2.635  -0.240  29.161  0.00  0.00    -0.133 NA
ATOM     41  C   UNL     1      -1.122  -1.941  28.376  0.00  0.00    +0.019 C 
ENDBRANCH   3  36
TORSDOF 4
ENDMDL
