REMARK  Name = =
REMARK  0 active torsions:
REMARK  status: ('A' for Active; 'I' for Inactive)
REMARK                            x       y       z     vdW  Elec       q    Type
REMARK                         _______ _______ _______ _____ _____    ______ ____
ROOT
ATOM      1  C   UNL     1      51.700 155.326  28.459  0.00  0.00    +0.076 C 
ATOM      2  S   UNL     1      52.815 156.091  27.215  0.00  0.00    -0.121 S 
ATOM      3  C   UNL     1      52.815 154.674  26.040  0.00  0.00    +0.128 C 
ATOM      4  N   UNL     1      51.689 153.917  26.538  0.00  0.00    -0.288 NA
ATOM      5  C   UNL     1      51.771 153.879  27.960  0.00  0.00    +0.081 C 
ATOM      6  H   UNL     1      51.719 152.968  26.165  0.00  0.00    +0.124 HD
ENDROOT
TORSDOF 0
