MODEL 1
REMARK VINA RESULT:    -6.257      0.000      0.000
REMARK INTER + INTRA:          -9.442
REMARK INTER:                  -8.818
REMARK INTRA:                  -0.624
REMARK UNBOUND:                -0.624
REMARK  Name = =
REMARK  8 active torsions:
REMARK  status: ('A' for Active; 'I' for Inactive)
REMARK    1  A    between atoms: C_3  and  C_10
REMARK    2  A    between atoms: C_3  and  N_16
REMARK    3  A    between atoms: N_11  and  O_12
REMARK    4  A    between atoms: O_12  and  C_13
REMARK    5  A    between atoms: N_16  and  S_17
REMARK    6  A    between atoms: N_16  and  C_21
REMARK    7  A    between atoms: S_17  and  N_20
REMARK    8  A    between atoms: C_21  and  O_23
REMARK                            x       y       z     vdW  Elec       q    Type
REMARK                         _______ _______ _______ _____ _____    ______ ____
ROOT
ATOM      1  C   UNL     1      62.588 164.921  37.489  0.00  0.00    +0.182 C 
ATOM      2  N   UNL     1      62.312 164.873  36.240  0.00  0.00    -0.208 NA
ATOM      3  C   UNL     1      61.322 165.876  35.969  0.00  0.00    +0.297 C 
ATOM      4  N   UNL     1      61.099 166.479  37.256  0.00  0.00    -0.224 NA
ATOM      5  C   UNL     1      61.851 165.899  38.113  0.00  0.00    +0.135 C 
ATOM      6  C   UNL     1      61.981 166.144  39.493  0.00  0.00    +0.122 C 
ATOM      7  N   UNL     1      62.831 165.413  40.192  0.00  0.00    -0.221 NA
ATOM      8  C   UNL     1      63.552 164.453  39.577  0.00  0.00    +0.200 C 
ATOM      9  N   UNL     1      63.444 164.205  38.263  0.00  0.00    -0.204 NA
ENDROOT
BRANCH   3  10
ATOM     10  C   UNL     1      60.036 165.190  35.633  0.00  0.00    +0.181 C 
ATOM     11  N   UNL     1      59.957 164.081  35.034  0.00  0.00    -0.069 NA
BRANCH  11  12
ATOM     12  O   UNL     1      58.738 163.514  34.760  0.00  0.00    -0.299 OA
BRANCH  12  13
ATOM     13  C   UNL     1      58.543 162.141  34.715  0.00  0.00    +0.423 C 
ATOM     14  O   UNL     1      58.361 161.629  33.578  0.00  0.00    -0.224 OA
ATOM     15  N   UNL     1      58.549 161.335  35.895  0.00  0.00    -0.293 N 
ATOM     16  H   UNL     1      58.693 161.752  36.775  0.00  0.00    +0.148 HD
ATOM     17  H   UNL     1      58.408 160.363  35.828  0.00  0.00    +0.148 HD
ENDBRANCH  12  13
ENDBRANCH  11  12
ENDBRANCH   3  10
BRANCH   3  18
ATOM     18  N   UNL     1      61.712 166.810  34.966  0.00  0.00    -0.102 N 
BRANCH  18  19
ATOM     19  S   UNL     1      60.751 168.191  34.679  0.00  0.00    +0.116 S 
ATOM     20  O   UNL     1      59.275 167.839  34.810  0.00  0.00    -0.138 OA
ATOM     21  O   UNL     1      61.054 169.215  35.731  0.00  0.00    -0.138 OA
BRANCH  19  22
ATOM     22  N   UNL     1      60.988 168.822  33.088  0.00  0.00    -0.190 NA
ATOM     23  H   UNL     1      61.520 168.152  32.533  0.00  0.00    +0.146 HD
ATOM     24  H   UNL     1      61.501 169.701  33.144  0.00  0.00    +0.146 HD
ENDBRANCH  19  22
ENDBRANCH  18  19
BRANCH  18  25
ATOM     25  C   UNL     1      62.876 166.587  34.226  0.00  0.00    +0.253 C 
ATOM     26  S   UNL     1      64.220 167.493  34.462  0.00  0.00    +0.008 S 
BRANCH  25  27
ATOM     27  O   UNL     1      62.873 165.568  33.272  0.00  0.00    -0.489 OA
ATOM     28  H   UNL     1      62.740 164.679  33.536  0.00  0.00    +0.294 HD
ENDBRANCH  25  27
ENDBRANCH  18  25
ENDBRANCH   3  18
TORSDOF 8
ENDMDL
