REMARK  Name = =
REMARK  12 active torsions:
REMARK  status: ('A' for Active; 'I' for Inactive)
REMARK    1  A    between atoms: S_1  and  P_13
REMARK    2  A    between atoms: S_1  and  N_17
REMARK    3  A    between atoms: O_3  and  O_4
REMARK    4  A    between atoms: O_5  and  S_6
REMARK    5  A    between atoms: S_6  and  N_7
REMARK    6  A    between atoms: C_8  and  C_10
REMARK    7  A    between atoms: P_13  and  O_15
REMARK    8  A    between atoms: P_13  and  O_16
REMARK    9  A    between atoms: N_17  and  C_19
REMARK   10  A    between atoms: N_17  and  S_28
REMARK   11  A    between atoms: S_28  and  N_31
REMARK   12  A    between atoms: C_32  and  O_34
REMARK                            x       y       z     vdW  Elec       q    Type
REMARK                         _______ _______ _______ _____ _____    ______ ____
ROOT
ATOM      1  N   UNL     1      53.533 153.381  26.921  0.00  0.00    -0.116 N 
ENDROOT
BRANCH   1   3
ATOM      2  C   UNL     1      53.683 151.202  25.772  0.00  0.00    +0.034 C 
ATOM      3  C   UNL     1      54.251 152.396  26.136  0.00  0.00    +0.162 C 
ATOM      4  N   UNL     1      55.509 152.643  25.794  0.00  0.00    -0.227 NA
ATOM      5  C   UNL     1      56.244 151.752  25.098  0.00  0.00    +0.100 C 
ATOM      6  C   UNL     1      55.692 150.562  24.732  0.00  0.00    +0.021 C 
ATOM      7  C   UNL     1      54.387 150.244  25.055  0.00  0.00    +0.004 C 
ATOM      8  C   UNL     1      53.836 149.044  24.684  0.00  0.00    +0.000 C 
ATOM      9  C   UNL     1      52.519 148.791  25.048  0.00  0.00    +0.000 C 
ATOM     10  C   UNL     1      51.835 149.752  25.758  0.00  0.00    +0.000 C 
ATOM     11  C   UNL     1      52.377 150.965  26.138  0.00  0.00    +0.003 C 
ENDBRANCH   1   3
BRANCH   1  12
ATOM     12  S   UNL     1      53.440 152.955  28.597  0.00  0.00    +0.141 S 
ATOM     13  O   UNL     1      54.861 152.791  29.123  0.00  0.00    -0.134 OA
ATOM     14  O   UNL     1      52.812 154.021  29.439  0.00  0.00    -0.134 OA
BRANCH  12  15
ATOM     15  N   UNL     1      52.634 151.444  28.841  0.00  0.00    -0.137 N 
ATOM     16  C   UNL     1      51.232 151.351  28.668  0.00  0.00    +0.418 C 
ATOM     17  O   UNL     1      50.573 152.375  28.329  0.00  0.00    -0.225 OA
ATOM     18  H   UNL     1      53.151 150.647  29.101  0.00  0.00    +0.181 HD
BRANCH  16  19
ATOM     19  O   UNL     1      50.558 150.143  28.864  0.00  0.00    -0.465 OA
ATOM     20  H   UNL     1      51.034 149.376  29.115  0.00  0.00    +0.297 HD
ENDBRANCH  16  19
ENDBRANCH  12  15
ENDBRANCH   1  12
BRANCH   1  21
ATOM     21  S   UNL     1      52.904 154.686  26.167  0.00  0.00    -0.004 S 
ATOM     22  H   UNL     1      52.919 155.775  26.981  0.00  0.00    +0.125 HD
BRANCH  21  23
ATOM     23  P   UNL     1      54.120 154.938  24.615  0.00  0.00    +0.392 P 
ATOM     24  O   UNL     1      53.837 153.807  23.656  0.00  0.00    -0.246 OA
BRANCH  23  25
ATOM     25  O   UNL     1      53.768 156.450  23.952  0.00  0.00    -0.316 OA
ATOM     26  H   UNL     1      53.965 157.142  24.602  0.00  0.00    +0.221 HD
ENDBRANCH  23  25
BRANCH  23  27
ATOM     27  O   UNL     1      55.662 154.888  25.241  0.00  0.00    -0.316 OA
ATOM     28  H   UNL     1      55.832 154.008  25.613  0.00  0.00    +0.221 HD
ENDBRANCH  23  27
ENDBRANCH  21  23
ENDBRANCH   1  21
TORSDOF 8
REMARK  Name = =
REMARK  12 active torsions:
REMARK  status: ('A' for Active; 'I' for Inactive)
REMARK    1  A    between atoms: S_1  and  P_13
REMARK    2  A    between atoms: S_1  and  N_17
REMARK    3  A    between atoms: O_3  and  O_4
REMARK    4  A    between atoms: O_5  and  S_6
REMARK    5  A    between atoms: S_6  and  N_7
REMARK    6  A    between atoms: C_8  and  C_10
REMARK    7  A    between atoms: P_13  and  O_15
REMARK    8  A    between atoms: P_13  and  O_16
REMARK    9  A    between atoms: N_17  and  C_19
REMARK   10  A    between atoms: N_17  and  S_28
REMARK   11  A    between atoms: S_28  and  N_31
REMARK   12  A    between atoms: C_32  and  O_34
REMARK                            x       y       z     vdW  Elec       q    Type
REMARK                         _______ _______ _______ _____ _____    ______ ____
ROOT
ATOM      1  P   UNL     1      52.899 156.198  26.925  0.00  0.00    +0.000 P 
ENDROOT
TORSDOF 0
REMARK  Name = =
REMARK  12 active torsions:
REMARK  status: ('A' for Active; 'I' for Inactive)
REMARK    1  A    between atoms: S_1  and  P_13
REMARK    2  A    between atoms: S_1  and  N_17
REMARK    3  A    between atoms: O_3  and  O_4
REMARK    4  A    between atoms: O_5  and  S_6
REMARK    5  A    between atoms: S_6  and  N_7
REMARK    6  A    between atoms: C_8  and  C_10
REMARK    7  A    between atoms: P_13  and  O_15
REMARK    8  A    between atoms: P_13  and  O_16
REMARK    9  A    between atoms: N_17  and  C_19
REMARK   10  A    between atoms: N_17  and  S_28
REMARK   11  A    between atoms: S_28  and  N_31
REMARK   12  A    between atoms: C_32  and  O_34
REMARK                            x       y       z     vdW  Elec       q    Type
REMARK                         _______ _______ _______ _____ _____    ______ ____
ROOT
ATOM      1  O   UNL     1      52.401 157.051  25.750  0.00  0.00    -0.253 OA
ATOM      2  H   UNL     1      52.141 157.547  24.958  0.00  0.00    +0.253 HD
ENDROOT
BRANCH   1   3
ATOM      3  O   UNL     1      53.828 157.303  26.042  0.00  0.00    -0.253 OA
ATOM      4  H   UNL     1      54.088 156.807  26.834  0.00  0.00    +0.253 HD
ENDBRANCH   1   3
TORSDOF 1
REMARK  Name = =
REMARK  12 active torsions:
REMARK  status: ('A' for Active; 'I' for Inactive)
REMARK    1  A    between atoms: S_1  and  P_13
REMARK    2  A    between atoms: S_1  and  N_17
REMARK    3  A    between atoms: O_3  and  O_4
REMARK    4  A    between atoms: O_5  and  S_6
REMARK    5  A    between atoms: S_6  and  N_7
REMARK    6  A    between atoms: C_8  and  C_10
REMARK    7  A    between atoms: P_13  and  O_15
REMARK    8  A    between atoms: P_13  and  O_16
REMARK    9  A    between atoms: N_17  and  C_19
REMARK   10  A    between atoms: N_17  and  S_28
REMARK   11  A    between atoms: S_28  and  N_31
REMARK   12  A    between atoms: C_32  and  O_34
REMARK                            x       y       z     vdW  Elec       q    Type
REMARK                         _______ _______ _______ _____ _____    ______ ____
ROOT
ATOM      1  N   UNL     1      51.086 157.802  29.095  0.00  0.00    -0.229 N 
ATOM      2  C   UNL     1      50.785 158.823  30.022  0.00  0.00    +0.310 C 
ATOM      3  O   UNL     1      51.621 159.742  30.196  0.00  0.00    -0.264 OA
ATOM      4  H   UNL     1      50.440 157.074  28.949  0.00  0.00    +0.165 HD
ENDROOT
BRANCH   2   5
ATOM      5  C   UNL     1      49.541 158.861  30.786  0.00  0.00    +0.297 C 
ATOM      6  O   UNL     1      48.684 157.972  30.523  0.00  0.00    -0.265 OA
ATOM      7  N   UNL     1      49.271 159.822  31.771  0.00  0.00    -0.322 N 
ATOM      8  H   UNL     1      49.938 160.516  31.978  0.00  0.00    +0.145 HD
ATOM      9  H   UNL     1      48.414 159.803  32.256  0.00  0.00    +0.145 HD
ENDBRANCH   2   5
BRANCH   1  10
ATOM     10  S   UNL     1      52.599 157.812  28.197  0.00  0.00    +0.101 S 
BRANCH  10  11
ATOM     11  O   UNL     1      53.769 156.289  28.368  0.00  0.00    -0.313 OA
ATOM     12  H   UNL     1      54.560 156.426  27.824  0.00  0.00    +0.229 HD
ENDBRANCH  10  11
ENDBRANCH   1  10
TORSDOF 3
