REMARK  Name = =
REMARK  8 active torsions:
REMARK  status: ('A' for Active; 'I' for Inactive)
REMARK    1  A    between atoms: C_3  and  C_10
REMARK    2  A    between atoms: C_3  and  N_16
REMARK    3  A    between atoms: N_11  and  O_12
REMARK    4  A    between atoms: O_12  and  C_13
REMARK    5  A    between atoms: N_16  and  S_17
REMARK    6  A    between atoms: N_16  and  C_21
REMARK    7  A    between atoms: S_17  and  N_20
REMARK    8  A    between atoms: C_21  and  O_23
REMARK                            x       y       z     vdW  Elec       q    Type
REMARK                         _______ _______ _______ _____ _____    ______ ____
ROOT
ATOM      1  C   UNL     1      51.322 154.614  27.661  0.00  0.00    +0.182 C 
ATOM      2  N   UNL     1      51.576 154.115  26.510  0.00  0.00    -0.208 NA
ATOM      3  C   UNL     1      52.978 153.815  26.459  0.00  0.00    +0.297 C 
ATOM      4  N   UNL     1      53.453 154.224  27.754  0.00  0.00    -0.224 NA
ATOM      5  C   UNL     1      52.463 154.682  28.424  0.00  0.00    +0.135 C 
ATOM      6  C   UNL     1      52.437 155.196  29.734  0.00  0.00    +0.122 C 
ATOM      7  N   UNL     1      51.287 155.618  30.229  0.00  0.00    -0.221 NA
ATOM      8  C   UNL     1      50.169 155.551  29.478  0.00  0.00    +0.200 C 
ATOM      9  N   UNL     1      50.173 155.063  28.228  0.00  0.00    -0.204 NA
ENDROOT
BRANCH   3  10
ATOM     10  C   UNL     1      53.626 154.755  25.493  0.00  0.00    +0.181 C 
ATOM     11  N   UNL     1      52.997 155.574  24.766  0.00  0.00    -0.069 NA
BRANCH  11  12
ATOM     12  O   UNL     1      53.663 156.406  23.902  0.00  0.00    -0.299 OA
BRANCH  12  13
ATOM     13  C   UNL     1      54.678 157.257  24.314  0.00  0.00    +0.423 C 
ATOM     14  O   UNL     1      54.776 157.469  25.552  0.00  0.00    -0.224 OA
ATOM     15  N   UNL     1      55.577 157.870  23.387  0.00  0.00    -0.293 N 
ATOM     16  H   UNL     1      55.486 157.693  22.423  0.00  0.00    +0.148 HD
ATOM     17  H   UNL     1      56.287 158.469  23.713  0.00  0.00    +0.148 HD
ENDBRANCH  12  13
ENDBRANCH  11  12
ENDBRANCH   3  10
BRANCH   3  18
ATOM     18  N   UNL     1      53.263 152.452  26.156  0.00  0.00    -0.102 N 
BRANCH  18  19
ATOM     19  S   UNL     1      52.136 151.241  26.572  0.00  0.00    +0.116 S 
ATOM     20  O   UNL     1      52.671 149.870  26.181  0.00  0.00    -0.138 OA
ATOM     21  O   UNL     1      51.962 151.236  28.061  0.00  0.00    -0.138 OA
BRANCH  19  22
ATOM     22  N   UNL     1      50.629 151.454  25.755  0.00  0.00    -0.190 NA
ATOM     23  H   UNL     1      50.239 152.366  25.994  0.00  0.00    +0.146 HD
ATOM     24  H   UNL     1      49.980 150.721  26.042  0.00  0.00    +0.146 HD
ENDBRANCH  19  22
ENDBRANCH  18  19
BRANCH  18  25
ATOM     25  C   UNL     1      54.463 152.120  25.521  0.00  0.00    +0.253 C 
ATOM     26  S   UNL     1      55.735 153.151  25.515  0.00  0.00    +0.008 S 
BRANCH  25  27
ATOM     27  O   UNL     1      54.558 150.881  24.884  0.00  0.00    -0.489 OA
ATOM     28  H   UNL     1      53.828 150.294  24.890  0.00  0.00    +0.294 HD
ENDBRANCH  25  27
ENDBRANCH  18  25
ENDBRANCH   3  18
TORSDOF 8
