REMARK  Name = =
REMARK  4 active torsions:
REMARK  status: ('A' for Active; 'I' for Inactive)
REMARK    1  A    between atoms: N_1  and  N_2
REMARK    2  A    between atoms: N_1  and  N_10
REMARK    3  A    between atoms: N_1  and  N_16
REMARK    4  A    between atoms: C_17  and  O_19
REMARK                            x       y       z     vdW  Elec       q    Type
REMARK                         _______ _______ _______ _____ _____    ______ ____
ROOT
ATOM      1  N   UNL     1     -12.774  -4.812  23.458  0.00  0.00    -0.048 NA
ENDROOT
BRANCH   1   2
ATOM      2  N   UNL     1     -12.338  -4.026  24.488  0.00  0.00    -0.189 N 
ATOM      3  C   UNL     1     -11.172  -3.265  24.168  0.00  0.00    +0.241 C 
ATOM      4  O   UNL     1     -11.095  -2.975  22.950  0.00  0.00    -0.273 OA
ATOM      5  C   UNL     1     -10.079  -2.802  25.097  0.00  0.00    +0.087 C 
ATOM      6  C   UNL     1     -10.777  -2.288  26.362  0.00  0.00    +0.010 C 
ATOM      7  C   UNL     1     -12.125  -1.739  25.952  0.00  0.00    +0.002 C 
ATOM      8  C   UNL     1     -13.272  -2.657  26.260  0.00  0.00    +0.023 C 
ATOM      9  C   UNL     1     -13.033  -4.046  25.749  0.00  0.00    +0.115 C 
ENDBRANCH   1   2
BRANCH   1  10
ATOM     10  N   UNL     1     -13.625  -4.287  22.533  0.00  0.00    -0.211 N 
ATOM     11  C   UNL     1     -13.298  -4.794  21.210  0.00  0.00    +0.159 C 
ATOM     12  C   UNL     1     -14.285  -4.100  20.267  0.00  0.00    +0.229 C 
ATOM     13  O   UNL     1     -15.551  -4.539  20.468  0.00  0.00    -0.469 OA
ATOM     14  C   UNL     1     -15.962  -4.708  21.752  0.00  0.00    +0.189 C 
ATOM     15  C   UNL     1     -14.999  -4.572  22.842  0.00  0.00    +0.120 C 
ENDBRANCH   1  10
BRANCH   1  16
ATOM     16  N   UNL     1     -11.798  -5.689  22.987  0.00  0.00    -0.180 N 
ATOM     17  C   UNL     1     -11.806  -7.024  23.509  0.00  0.00    +0.414 C 
ATOM     18  O   UNL     1     -12.650  -7.409  24.357  0.00  0.00    -0.225 OA
ATOM     19  H   UNL     1     -11.130  -5.403  22.323  0.00  0.00    +0.176 HD
BRANCH  17  20
ATOM     20  O   UNL     1     -10.865  -7.954  23.087  0.00  0.00    -0.465 OA
ATOM     21  H   UNL     1     -10.217  -7.711  22.456  0.00  0.00    +0.297 HD
ENDBRANCH  17  20
ENDBRANCH   1  16
TORSDOF 4
