REMARK  Name = =
REMARK  5 active torsions:
REMARK  status: ('A' for Active; 'I' for Inactive)
REMARK    1  A    between atoms: C_1  and  C_22
REMARK    2  A    between atoms: C_1  and  C_27
REMARK    3  A    between atoms: C_5  and  C_8
REMARK    4  A    between atoms: C_27  and  O_29
REMARK    5  A    between atoms: O_29  and  N_30
REMARK                            x       y       z     vdW  Elec       q    Type
REMARK                         _______ _______ _______ _____ _____    ______ ____
ROOT
ATOM      1  C   UNL     1      53.851 153.007  25.378  0.00  0.00    +0.152 C 
ATOM      2  C   UNL     1      54.628 154.060  26.109  0.00  0.00    +0.161 C 
ATOM      3  O   UNL     1      55.839 154.127  26.000  0.00  0.00    -0.296 OA
ATOM      4  C   UNL     1      53.884 155.008  26.957  0.00  0.00    +0.065 C 
ATOM      5  C   UNL     1      52.690 155.599  26.246  0.00  0.00    +0.008 C 
ATOM      6  C   UNL     1      51.870 154.540  25.547  0.00  0.00    +0.001 C 
ATOM      7  C   UNL     1      52.732 153.707  24.635  0.00  0.00    +0.018 C 
ENDROOT
BRANCH   5   8
ATOM      8  C   UNL     1      51.820 156.262  27.308  0.00  0.00    +0.005 C 
ATOM      9  C   UNL     1      52.621 157.230  28.132  0.00  0.00    +0.026 C 
ATOM     10  C   UNL     1      51.722 157.812  29.160  0.00  0.00    -0.026 C 
ATOM     11  C   UNL     1      50.770 157.012  29.723  0.00  0.00    -0.026 C 
ATOM     12  C   UNL     1      49.927 157.553  30.685  0.00  0.00    -0.005 C 
ATOM     13  C   UNL     1      50.016 158.867  31.095  0.00  0.00    -0.000 C 
ATOM     14  C   UNL     1      50.984 159.653  30.514  0.00  0.00    -0.000 C 
ATOM     15  C   UNL     1      51.819 159.130  29.565  0.00  0.00    -0.005 C 
ATOM     16  C   UNL     1      51.076 160.983  30.926  0.00  0.00    -0.000 C 
ATOM     17  C   UNL     1      50.229 161.471  31.874  0.00  0.00    -0.000 C 
ATOM     18  C   UNL     1      49.251 160.707  32.471  0.00  0.00    -0.000 C 
ATOM     19  C   UNL     1      49.163 159.386  32.059  0.00  0.00    -0.000 C 
ATOM     20  C   UNL     1      50.564 155.591  29.379  0.00  0.00    +0.026 C 
ATOM     21  C   UNL     1      51.196 155.170  28.107  0.00  0.00    +0.005 C 
ENDBRANCH   5   8
BRANCH   1  22
ATOM     22  C   UNL     1      53.319 152.061  26.401  0.00  0.00    +0.113 C 
ATOM     23  C   UNL     1      53.072 150.638  25.970  0.00  0.00    +0.099 C 
ATOM     24  N   UNL     1      51.952 150.690  26.927  0.00  0.00    -0.304 N 
ATOM     25  C   UNL     1      51.855 152.059  26.588  0.00  0.00    +0.225 C 
ATOM     26  O   UNL     1      50.920 152.865  26.498  0.00  0.00    -0.275 OA
ATOM     27  H   UNL     1      51.487 150.062  27.525  0.00  0.00    +0.149 HD
ENDBRANCH   1  22
BRANCH   1  28
ATOM     28  C   UNL     1      54.746 152.399  24.379  0.00  0.00    +0.341 C 
ATOM     29  O   UNL     1      54.985 151.164  24.339  0.00  0.00    -0.248 OA
BRANCH  28  30
ATOM     30  O   UNL     1      55.358 153.203  23.437  0.00  0.00    -0.371 OA
BRANCH  30  31
ATOM     31  N   UNL     1      54.672 153.518  22.263  0.00  0.00    -0.165 NA
ATOM     32  H   UNL     1      55.256 154.115  21.677  0.00  0.00    +0.163 HD
ATOM     33  H   UNL     1      53.809 154.010  22.495  0.00  0.00    +0.163 HD
ENDBRANCH  30  31
ENDBRANCH  28  30
ENDBRANCH   1  28
TORSDOF 5
