REMARK  Name = =
REMARK  7 active torsions:
REMARK  status: ('A' for Active; 'I' for Inactive)
REMARK    1  A    between atoms: C_1  and  C_32
REMARK    2  A    between atoms: C_1  and  C_40
REMARK    3  A    between atoms: C_4  and  C_22
REMARK    4  A    between atoms: C_5  and  C_8
REMARK    5  A    between atoms: C_32  and  N_39
REMARK    6  A    between atoms: C_40  and  O_42
REMARK    7  A    between atoms: O_42  and  N_43
REMARK                            x       y       z     vdW  Elec       q    Type
REMARK                         _______ _______ _______ _____ _____    ______ ____
ROOT
ATOM      1  C   UNL     1      60.587 161.768  40.079  0.00  0.00    +0.167 C 
ATOM      2  C   UNL     1      59.630 162.143  41.191  0.00  0.00    +0.167 C 
ATOM      3  O   UNL     1      59.573 161.498  42.200  0.00  0.00    -0.295 OA
ATOM      4  C   UNL     1      58.781 163.325  40.962  0.00  0.00    +0.098 C 
ATOM      5  C   UNL     1      59.382 164.378  40.206  0.00  0.00    +0.013 C 
ATOM      6  C   UNL     1      59.951 163.921  38.885  0.00  0.00    +0.002 C 
ATOM      7  C   UNL     1      60.370 162.500  38.818  0.00  0.00    +0.020 C 
ENDROOT
BRANCH   5   8
ATOM      8  C   UNL     1      58.775 165.761  40.132  0.00  0.00    +0.005 C 
ATOM      9  C   UNL     1      57.355 165.551  40.601  0.00  0.00    +0.026 C 
ATOM     10  C   UNL     1      56.608 166.817  40.515  0.00  0.00    -0.026 C 
ATOM     11  C   UNL     1      57.230 167.955  40.944  0.00  0.00    -0.026 C 
ATOM     12  C   UNL     1      56.508 169.144  40.926  0.00  0.00    -0.005 C 
ATOM     13  C   UNL     1      55.197 169.182  40.489  0.00  0.00    -0.000 C 
ATOM     14  C   UNL     1      54.598 168.020  40.065  0.00  0.00    -0.000 C 
ATOM     15  C   UNL     1      55.280 166.832  40.067  0.00  0.00    -0.005 C 
ATOM     16  C   UNL     1      53.272 168.092  39.657  0.00  0.00    -0.000 C 
ATOM     17  C   UNL     1      52.553 169.268  39.667  0.00  0.00    -0.000 C 
ATOM     18  C   UNL     1      53.180 170.429  40.102  0.00  0.00    -0.000 C 
ATOM     19  C   UNL     1      54.489 170.370  40.506  0.00  0.00    -0.000 C 
ATOM     20  C   UNL     1      58.616 167.883  41.440  0.00  0.00    +0.026 C 
ATOM     21  C   UNL     1      59.487 166.860  40.771  0.00  0.00    +0.005 C 
ENDBRANCH   5   8
BRANCH   4  22
ATOM     22  C   UNL     1      57.546 163.356  41.718  0.00  0.00    +0.066 C 
ATOM     23  N   UNL     1      57.150 164.309  42.576  0.00  0.00    -0.248 NA
ATOM     24  C   UNL     1      55.900 164.453  43.034  0.00  0.00    +0.098 C 
ATOM     25  C   UNL     1      54.926 163.598  42.634  0.00  0.00    +0.021 C 
ATOM     26  C   UNL     1      55.240 162.587  41.762  0.00  0.00    +0.003 C 
ATOM     27  C   UNL     1      56.526 162.493  41.335  0.00  0.00    +0.014 C 
ATOM     28  C   UNL     1      56.856 161.429  40.537  0.00  0.00    +0.001 C 
ATOM     29  C   UNL     1      55.969 160.443  40.127  0.00  0.00    +0.000 C 
ATOM     30  C   UNL     1      54.671 160.567  40.570  0.00  0.00    +0.000 C 
ATOM     31  C   UNL     1      54.298 161.621  41.378  0.00  0.00    +0.000 C 
ENDBRANCH   4  22
BRANCH   1  32
ATOM     32  C   UNL     1      61.965 161.625  40.605  0.00  0.00    +0.160 C 
ATOM     33  C   UNL     1      62.418 160.254  40.996  0.00  0.00    +0.117 C 
ATOM     34  N   UNL     1      63.083 160.103  39.732  0.00  0.00    -0.301 N 
ATOM     35  C   UNL     1      62.941 161.494  39.479  0.00  0.00    +0.241 C 
ATOM     36  O   UNL     1      63.473 162.235  38.618  0.00  0.00    -0.273 OA
ATOM     37  H   UNL     1      63.476 159.345  39.241  0.00  0.00    +0.150 HD
BRANCH  32  40
ATOM     38  C   UNL     1      63.617 162.450  42.253  0.00  0.00    +0.300 C 
ATOM     39  O   UNL     1      64.412 161.479  42.075  0.00  0.00    -0.265 OA
ATOM     40  N   UNL     1      62.384 162.616  41.579  0.00  0.00    -0.291 N 
ATOM     41  H   UNL     1      61.815 163.397  41.769  0.00  0.00    +0.150 HD
ENDBRANCH  32  40
ENDBRANCH   1  32
BRANCH   1  42
ATOM     42  C   UNL     1      60.114 160.349  39.745  0.00  0.00    +0.342 C 
ATOM     43  O   UNL     1      59.606 159.662  40.655  0.00  0.00    -0.248 OA
BRANCH  42  44
ATOM     44  O   UNL     1      60.218 159.793  38.492  0.00  0.00    -0.371 OA
BRANCH  44  45
ATOM     45  N   UNL     1      59.170 159.476  37.697  0.00  0.00    -0.165 NA
ATOM     46  H   UNL     1      59.514 159.079  36.823  0.00  0.00    +0.163 HD
ATOM     47  H   UNL     1      58.627 160.317  37.499  0.00  0.00    +0.163 HD
ENDBRANCH  44  45
ENDBRANCH  42  44
ENDBRANCH   1  42
TORSDOF 7
