REMARK  Name = =
REMARK  0 active torsions:
REMARK  status: ('A' for Active; 'I' for Inactive)
REMARK                            x       y       z     vdW  Elec       q    Type
REMARK                         _______ _______ _______ _____ _____    ______ ____
ROOT
ATOM      1  C   UNL     1      -4.788  -2.590  30.710  0.00  0.00    +0.025 C 
ATOM      2  C   UNL     1      -5.131  -3.978  31.131  0.00  0.00    +0.005 C 
ATOM      3  C   UNL     1      -4.020  -4.646  31.874  0.00  0.00    +0.004 C 
ATOM      4  C   UNL     1      -3.726  -6.039  31.418  0.00  0.00    +0.001 C 
ATOM      5  C   UNL     1      -2.345  -6.284  30.984  0.00  0.00    +0.012 C 
ATOM      6  C   UNL     1      -1.385  -6.765  31.976  0.00  0.00    +0.057 C 
ATOM      7  C   UNL     1      -0.478  -7.810  31.320  0.00  0.00    +0.118 C 
ATOM      8  O   UNL     1      -0.714  -8.716  32.339  0.00  0.00    -0.356 OA
ATOM      9  C   UNL     1      -1.816  -7.988  32.772  0.00  0.00    +0.144 C 
ATOM     10  C   UNL     1      -1.144  -8.307  30.036  0.00  0.00    +0.030 C 
ATOM     11  C   UNL     1      -1.137  -7.179  29.049  0.00  0.00    +0.010 C 
ATOM     12  C   UNL     1      -1.912  -6.022  29.630  0.00  0.00    +0.058 C 
ATOM     13  C   UNL     1      -1.087  -4.786  29.427  0.00  0.00    +0.154 C 
ATOM     14  O   UNL     1       0.033  -4.988  29.009  0.00  0.00    -0.296 OA
ATOM     15  C   UNL     1      -1.383  -3.327  29.644  0.00  0.00    +0.086 C 
ATOM     16  C   UNL     1      -2.480  -3.257  30.607  0.00  0.00    -0.041 C 
ATOM     17  C   UNL     1      -3.426  -2.522  30.044  0.00  0.00    -0.034 C 
ATOM     18  C   UNL     1      -2.771  -3.789  31.953  0.00  0.00    +0.022 C 
ENDROOT
TORSDOF 0
