REMARK  Name = =
REMARK  4 active torsions:
REMARK  status: ('A' for Active; 'I' for Inactive)
REMARK    1  A    between atoms: C_4  and  P_19
REMARK    2  A    between atoms: P_19  and  O_20
REMARK    3  A    between atoms: P_19  and  C_23
REMARK    4  A    between atoms: O_20  and  O_21
REMARK                            x       y       z     vdW  Elec       q    Type
REMARK                         _______ _______ _______ _____ _____    ______ ____
ROOT
ATOM      1  C   UNL     1      -4.328  -2.988  30.474  0.00  0.00    +0.000 C 
ATOM      2  C   UNL     1      -4.219  -4.447  30.859  0.00  0.00    +0.000 C 
ATOM      3  C   UNL     1      -2.864  -4.842  31.117  0.00  0.00    +0.006 C 
ATOM      4  C   UNL     1      -2.363  -6.199  31.028  0.00  0.00    +0.042 C 
ATOM      5  C   UNL     1      -1.188  -6.232  30.070  0.00  0.00    +0.018 C 
ATOM      6  C   UNL     1      -0.318  -7.418  30.274  0.00  0.00    +0.058 C 
ATOM      7  C   UNL     1       0.563  -7.837  29.184  0.00  0.00    +0.120 C 
ATOM      8  O   UNL     1       0.081  -9.145  29.129  0.00  0.00    -0.356 OA
ATOM      9  C   UNL     1      -0.877  -8.780  30.069  0.00  0.00    +0.142 C 
ATOM     10  C   UNL     1       0.413  -7.192  27.858  0.00  0.00    +0.030 C 
ATOM     11  C   UNL     1      -1.016  -6.842  27.636  0.00  0.00    +0.010 C 
ATOM     12  C   UNL     1      -1.469  -5.849  28.681  0.00  0.00    +0.058 C 
ATOM     13  C   UNL     1      -0.968  -4.529  28.237  0.00  0.00    +0.150 C 
ATOM     14  O   UNL     1      -0.277  -4.566  27.277  0.00  0.00    -0.296 OA
ATOM     15  C   UNL     1      -1.139  -3.093  28.743  0.00  0.00    +0.064 C 
ATOM     16  C   UNL     1      -1.965  -3.132  29.937  0.00  0.00    +0.007 C 
ATOM     17  C   UNL     1      -3.108  -2.535  29.670  0.00  0.00    +0.000 C 
ATOM     18  C   UNL     1      -1.893  -3.709  31.297  0.00  0.00    +0.001 C 
ENDROOT
BRANCH   4  19
ATOM     19  P   UNL     1      -2.062  -6.974  32.609  0.00  0.00    +0.052 P 
ATOM     20  H   UNL     1      -2.301  -7.073  33.965  0.00  0.00    +0.090 HD
BRANCH  19  21
ATOM     21  C   UNL     1      -3.082  -8.422  32.666  0.00  0.00    +0.016 C 
ATOM     22  C   UNL     1      -3.243  -9.134  33.754  0.00  0.00    +0.002 C 
ENDBRANCH  19  21
BRANCH  19  23
ATOM     23  O   UNL     1      -0.703  -6.297  32.604  0.00  0.00    -0.220 OA
BRANCH  23  24
ATOM     24  O   UNL     1      -0.566  -7.718  32.868  0.00  0.00    -0.247 OA
ATOM     25  H   UNL     1       0.372  -7.936  32.986  0.00  0.00    +0.253 HD
ENDBRANCH  23  24
ENDBRANCH  19  23
ENDBRANCH   4  19
TORSDOF 4
REMARK  Name = =
REMARK  4 active torsions:
REMARK  status: ('A' for Active; 'I' for Inactive)
REMARK    1  A    between atoms: C_4  and  P_19
REMARK    2  A    between atoms: P_19  and  O_20
REMARK    3  A    between atoms: P_19  and  C_23
REMARK    4  A    between atoms: O_20  and  O_21
REMARK                            x       y       z     vdW  Elec       q    Type
REMARK                         _______ _______ _______ _____ _____    ______ ____
ROOT
ATOM      1  O   HOH     1      -2.405  -5.927  33.889  0.00  0.00    -0.253 OA
ATOM      2  H   HOH     0      -1.435  -5.927  33.889  0.00  0.00    +0.253 HD
ENDROOT
TORSDOF 0
