REMARK  Name = =
REMARK  2 active torsions:
REMARK  status: ('A' for Active; 'I' for Inactive)
REMARK    1  A    between atoms: C_9  and  N_25
REMARK    2  A    between atoms: N_25  and  N_26
REMARK                            x       y       z     vdW  Elec       q    Type
REMARK                         _______ _______ _______ _____ _____    ______ ____
ROOT
ATOM      1  C   UNL     1      -2.698  -8.595  32.833  0.00  0.00    +0.000 C 
ATOM      2  C   UNL     1      -1.842  -8.599  31.576  0.00  0.00    +0.000 C 
ATOM      3  C   UNL     1      -0.846  -7.489  31.656  0.00  0.00    +0.000 C 
ATOM      4  C   UNL     1      -0.463  -6.932  30.297  0.00  0.00    +0.001 C 
ATOM      5  C   UNL     1      -1.000  -5.511  30.109  0.00  0.00    +0.013 C 
ATOM      6  C   UNL     1      -0.004  -4.619  29.480  0.00  0.00    +0.072 C 
ATOM      7  C   UNL     1      -0.583  -3.256  29.154  0.00  0.00    +0.134 C 
ATOM      8  O   UNL     1      -0.321  -2.948  30.520  0.00  0.00    -0.342 OA
ATOM      9  C   UNL     1       0.847  -3.721  30.304  0.00  0.00    +0.177 C 
ATOM     10  C   UNL     1      -1.993  -3.226  28.730  0.00  0.00    +0.032 C 
ATOM     11  C   UNL     1      -2.507  -4.588  28.301  0.00  0.00    +0.010 C 
ATOM     12  C   UNL     1      -2.364  -5.489  29.498  0.00  0.00    +0.058 C 
ATOM     13  C   UNL     1      -3.347  -5.036  30.509  0.00  0.00    +0.150 C 
ATOM     14  O   UNL     1      -4.252  -4.404  29.998  0.00  0.00    -0.296 OA
ATOM     15  C   UNL     1      -3.566  -5.124  31.998  0.00  0.00    +0.064 C 
ATOM     16  C   UNL     1      -2.698  -6.221  32.462  0.00  0.00    +0.007 C 
ATOM     17  C   UNL     1      -3.434  -7.271  32.785  0.00  0.00    +0.000 C 
ATOM     18  C   UNL     1      -1.229  -6.400  32.622  0.00  0.00    +0.000 C 
ENDROOT
BRANCH   9  19
ATOM     19  N   UNL     1       1.540  -4.171  31.445  0.00  0.00    -0.177 NA
ATOM     20  H   UNL     1       0.866  -4.694  32.004  0.00  0.00    +0.148 HD
BRANCH  19  21
ATOM     21  N   UNL     1       2.677  -4.982  31.334  0.00  0.00    +0.031 NA
ATOM     22  O   UNL     1       3.394  -4.891  30.304  0.00  0.00    -0.082 OA
ENDBRANCH  19  21
ENDBRANCH   9  19
TORSDOF 2
REMARK  Name = =
REMARK  2 active torsions:
REMARK  status: ('A' for Active; 'I' for Inactive)
REMARK    1  A    between atoms: C_9  and  N_25
REMARK    2  A    between atoms: N_25  and  N_26
REMARK                            x       y       z     vdW  Elec       q    Type
REMARK                         _______ _______ _______ _____ _____    ______ ____
ROOT
ATOM      1  P   UNL     1      -0.709  -7.952  28.947  0.00  0.00    +0.000 P 
ENDROOT
TORSDOF 0
REMARK  Name = =
REMARK  2 active torsions:
REMARK  status: ('A' for Active; 'I' for Inactive)
REMARK    1  A    between atoms: C_9  and  N_25
REMARK    2  A    between atoms: N_25  and  N_26
REMARK                            x       y       z     vdW  Elec       q    Type
REMARK                         _______ _______ _______ _____ _____    ______ ____
ROOT
ATOM      1  O   HOH     1      -2.125  -8.166  29.047  0.00  0.00    -0.253 OA
ATOM      2  H   HOH     0      -1.155  -8.166  29.047  0.00  0.00    +0.253 HD
ENDROOT
TORSDOF 0
REMARK  Name = =
REMARK  2 active torsions:
REMARK  status: ('A' for Active; 'I' for Inactive)
REMARK    1  A    between atoms: C_9  and  N_25
REMARK    2  A    between atoms: N_25  and  N_26
REMARK                            x       y       z     vdW  Elec       q    Type
REMARK                         _______ _______ _______ _____ _____    ______ ____
ROOT
ATOM      1  O   HOH     1      -0.881  -6.868  27.655  0.00  0.00    -0.253 OA
ATOM      2  H   HOH     0       0.089  -6.868  27.655  0.00  0.00    +0.253 HD
ENDROOT
TORSDOF 0
REMARK  Name = =
REMARK  2 active torsions:
REMARK  status: ('A' for Active; 'I' for Inactive)
REMARK    1  A    between atoms: C_9  and  N_25
REMARK    2  A    between atoms: N_25  and  N_26
REMARK                            x       y       z     vdW  Elec       q    Type
REMARK                         _______ _______ _______ _____ _____    ______ ____
ROOT
ATOM      1  O   HOH     1       0.939  -8.447  29.073  0.00  0.00    -0.253 OA
ATOM      2  H   HOH     0       1.909  -8.447  29.073  0.00  0.00    +0.253 HD
ENDROOT
TORSDOF 0
REMARK  Name = =
REMARK  2 active torsions:
REMARK  status: ('A' for Active; 'I' for Inactive)
REMARK    1  A    between atoms: C_9  and  N_25
REMARK    2  A    between atoms: N_25  and  N_26
REMARK                            x       y       z     vdW  Elec       q    Type
REMARK                         _______ _______ _______ _____ _____    ______ ____
ROOT
ATOM      1  C   UNL     1      -0.672  -9.554  28.388  0.00  0.00    +0.000 C 
ATOM      2  C   UNL     1       0.086  -9.786  27.325  0.00  0.00    +0.000 C 
ENDROOT
TORSDOF 0
