REMARK  Name = =
REMARK  8 active torsions:
REMARK  status: ('A' for Active; 'I' for Inactive)
REMARK    1  A    between atoms: C_4  and  N_19
REMARK    2  A    between atoms: C_4  and  P_27
REMARK    3  A    between atoms: C_9  and  N_33
REMARK    4  A    between atoms: P_27  and  O_28
REMARK    5  A    between atoms: P_27  and  O_29
REMARK    6  A    between atoms: P_27  and  O_30
REMARK    7  A    between atoms: P_27  and  C_31
REMARK    8  A    between atoms: N_33  and  N_34
REMARK                            x       y       z     vdW  Elec       q    Type
REMARK                         _______ _______ _______ _____ _____    ______ ____
ROOT
ATOM      1  C   UNL     1      -0.251  -7.102  26.913  0.00  0.00    +0.000 C 
ATOM      2  C   UNL     1      -0.556  -6.012  27.958  0.00  0.00    +0.002 C 
ATOM      3  C   UNL     1       0.366  -6.190  29.109  0.00  0.00    +0.027 C 
ATOM      4  C   UNL     1      -0.062  -5.371  30.338  0.00  0.00    +0.140 C 
ATOM      5  C   UNL     1      -1.342  -6.028  30.799  0.00  0.00    +0.044 C 
ATOM      6  C   UNL     1      -2.411  -5.088  31.184  0.00  0.00    +0.078 C 
ATOM      7  C   UNL     1      -3.275  -5.435  32.309  0.00  0.00    +0.142 C 
ATOM      8  O   UNL     1      -4.236  -5.923  31.477  0.00  0.00    -0.338 OA
ATOM      9  C   UNL     1      -3.713  -5.160  30.442  0.00  0.00    +0.192 C 
ATOM     10  C   UNL     1      -2.706  -6.342  33.339  0.00  0.00    -0.001 C 
ATOM     11  C   UNL     1      -1.769  -7.389  32.886  0.00  0.00    -0.021 C 
ATOM     12  C   UNL     1      -1.334  -7.316  31.444  0.00  0.00    +0.082 C 
ATOM     13  C   UNL     1      -1.991  -8.451  30.679  0.00  0.00    +0.154 C 
ATOM     14  O   UNL     1      -3.110  -8.730  30.988  0.00  0.00    -0.296 OA
ATOM     15  C   UNL     1      -1.422  -9.288  29.567  0.00  0.00    +0.065 C 
ATOM     16  C   UNL     1      -0.442  -8.430  28.872  0.00  0.00    +0.007 C 
ATOM     17  C   UNL     1      -0.679  -8.363  27.602  0.00  0.00    +0.000 C 
ATOM     18  C   UNL     1       0.715  -7.614  29.408  0.00  0.00    +0.003 C 
ENDROOT
BRANCH   4  19
ATOM     19  N   UNL     1       1.024  -5.402  31.253  0.00  0.00    -0.235 N 
ATOM     20  C   UNL     1       0.903  -5.501  32.585  0.00  0.00    +0.074 C 
ATOM     21  C   UNL     1       1.983  -5.548  33.420  0.00  0.00    +0.074 C 
ATOM     22  C   UNL     1       3.252  -5.494  32.915  0.00  0.00    +0.254 C 
ATOM     23  O   UNL     1       4.294  -5.529  33.584  0.00  0.00    -0.270 OA
ATOM     24  N   UNL     1       3.364  -5.391  31.559  0.00  0.00    -0.236 N 
ATOM     25  C   UNL     1       2.295  -5.347  30.754  0.00  0.00    +0.314 C 
ATOM     26  O   UNL     1       2.504  -5.246  29.493  0.00  0.00    -0.252 OA
ATOM     27  H   UNL     1       4.262  -5.348  31.159  0.00  0.00    +0.159 HD
ENDBRANCH   4  19
BRANCH   9  28
ATOM     28  N   UNL     1      -4.329  -3.849  30.301  0.00  0.00    -0.176 NA
ATOM     29  H   UNL     1      -4.216  -3.574  29.325  0.00  0.00    +0.148 HD
BRANCH  28  30
ATOM     30  N   UNL     1      -5.689  -3.674  30.618  0.00  0.00    +0.031 NA
ATOM     31  O   UNL     1      -6.007  -2.758  31.425  0.00  0.00    -0.082 OA
ENDBRANCH  28  30
ENDBRANCH   9  28
BRANCH   4  32
ATOM     32  P   UNL     1      -0.246  -3.674  29.817  0.00  0.00    +0.202 P 
BRANCH  32  33
ATOM     33  O   UNL     1       0.960  -3.376  30.605  0.00  0.00    -0.337 OA
ATOM     34  H   UNL     1       0.858  -3.735  31.500  0.00  0.00    +0.219 HD
ENDBRANCH  32  33
BRANCH  32  35
ATOM     35  O   UNL     1      -1.346  -3.930  28.513  0.00  0.00    -0.337 OA
ATOM     36  H   UNL     1      -2.113  -4.432  28.831  0.00  0.00    +0.219 HD
ENDBRANCH  32  35
BRANCH  32  37
ATOM     37  O   UNL     1      -1.143  -2.573  30.694  0.00  0.00    -0.337 OA
ATOM     38  H   UNL     1      -1.783  -3.046  31.249  0.00  0.00    +0.219 HD
ENDBRANCH  32  37
BRANCH  32  39
ATOM     39  C   UNL     1       0.898  -2.789  28.827  0.00  0.00    +0.063 C 
ATOM     40  C   UNL     1       1.571  -3.087  27.756  0.00  0.00    +0.006 C 
ENDBRANCH  32  39
ENDBRANCH   4  32
TORSDOF 8
