MODEL 1
REMARK VINA RESULT:    -8.612      0.000      0.000
REMARK INTER + INTRA:         -16.045
REMARK INTER:                 -13.395
REMARK INTRA:                  -2.650
REMARK UNBOUND:                -2.650
REMARK  Name = =
REMARK  11 active torsions:
REMARK  status: ('A' for Active; 'I' for Inactive)
REMARK    1  A    between atoms: C_1  and  C_15
REMARK    2  A    between atoms: C_3  and  N_7
REMARK    3  A    between atoms: C_4  and  O_29
REMARK    4  A    between atoms: C_16  and  N_21
REMARK    5  A    between atoms: N_21  and  O_25
REMARK    6  A    between atoms: O_25  and  C_26
REMARK    7  A    between atoms: C_26  and  O_28
REMARK    8  A    between atoms: O_29  and  C_30
REMARK    9  A    between atoms: C_31  and  O_42
REMARK   10  A    between atoms: C_34  and  O_41
REMARK   11  A    between atoms: C_35  and  C_36
REMARK                            x       y       z     vdW  Elec       q    Type
REMARK                         _______ _______ _______ _____ _____    ______ ____
ROOT
ATOM      1  C   UNL     1       2.664  -1.590  25.580  0.00  0.00    +0.008 C 
ATOM      2  C   UNL     1       2.879  -2.920  25.824  0.00  0.00    +0.017 C 
ATOM      3  C   UNL     1       2.630  -3.532  27.071  0.00  0.00    +0.095 C 
ATOM      4  C   UNL     1       2.148  -2.782  28.126  0.00  0.00    +0.159 C 
ATOM      5  C   UNL     1       1.935  -1.421  27.850  0.00  0.00    +0.039 C 
ATOM      6  C   UNL     1       2.180  -0.842  26.630  0.00  0.00    +0.001 C 
ENDROOT
BRANCH   3   7
ATOM      7  N   UNL     1       2.891  -4.905  27.215  0.00  0.00    -0.201 N 
ATOM      8  C   UNL     1       1.872  -5.856  26.979  0.00  0.00    +0.258 C 
ATOM      9  O   UNL     1       0.757  -5.496  26.498  0.00  0.00    -0.269 OA
ATOM     10  C   UNL     1       2.016  -7.298  27.263  0.00  0.00    +0.055 C 
ATOM     11  C   UNL     1       3.386  -7.780  27.555  0.00  0.00    -0.012 C 
ATOM     12  C   UNL     1       4.512  -6.844  27.283  0.00  0.00    +0.112 C 
ATOM     13  C   UNL     1       4.167  -5.414  27.563  0.00  0.00    +0.240 C 
ATOM     14  O   UNL     1       5.021  -4.690  28.101  0.00  0.00    -0.274 OA
ENDBRANCH   3   7
BRANCH   1  15
ATOM     15  C   UNL     1       2.997  -1.001  24.249  0.00  0.00    +0.159 C 
ATOM     16  C   UNL     1       4.380  -0.507  24.100  0.00  0.00    +0.148 C 
ATOM     17  C   UNL     1       4.489   0.118  22.709  0.00  0.00    +0.029 C 
ATOM     18  C   UNL     1       3.150   0.224  22.030  0.00  0.00    +0.034 C 
ATOM     19  C   UNL     1       2.321  -1.018  22.088  0.00  0.00    +0.143 C 
ATOM     20  O   UNL     1       2.599  -1.811  23.221  0.00  0.00    -0.350 OA
BRANCH  16  21
ATOM     21  N   UNL     1       5.411  -1.473  24.258  0.00  0.00    -0.100 N 
ATOM     22  C   UNL     1       5.756  -2.483  23.353  0.00  0.00    +0.333 C 
ATOM     23  O   UNL     1       6.718  -3.267  23.677  0.00  0.00    -0.250 OA
ATOM     24  N   UNL     1       5.175  -2.759  22.099  0.00  0.00    -0.311 N 
ATOM     25  H   UNL     1       4.429  -2.207  21.770  0.00  0.00    +0.147 HD
ATOM     26  H   UNL     1       5.514  -3.505  21.553  0.00  0.00    +0.147 HD
BRANCH  21  27
ATOM     27  O   UNL     1       6.156  -1.372  25.444  0.00  0.00    -0.309 OA
BRANCH  27  28
ATOM     28  C   UNL     1       7.331  -0.611  25.284  0.00  0.00    +0.531 C 
ATOM     29  O   UNL     1       8.429  -0.981  25.769  0.00  0.00    -0.201 OA
BRANCH  28  30
ATOM     30  O   UNL     1       7.311   0.583  24.581  0.00  0.00    -0.448 OA
ATOM     31  H   UNL     1       6.537   0.843  24.121  0.00  0.00    +0.299 HD
ENDBRANCH  28  30
ENDBRANCH  27  28
ENDBRANCH  21  27
ENDBRANCH  16  21
ENDBRANCH   1  15
BRANCH   4  32
ATOM     32  O   UNL     1       1.875  -3.218  29.363  0.00  0.00    -0.449 OA
BRANCH  32  33
ATOM     33  C   UNL     1       1.128  -4.153  29.963  0.00  0.00    +0.183 C 
ATOM     34  C   UNL     1       1.846  -5.185  30.627  0.00  0.00    +0.169 C 
ATOM     35  C   UNL     1       1.147  -6.167  31.266  0.00  0.00    +0.043 C 
ATOM     36  C   UNL     1      -0.219  -6.170  31.273  0.00  0.00    +0.040 C 
ATOM     37  C   UNL     1      -0.899  -5.178  30.633  0.00  0.00    +0.139 C 
ATOM     38  C   UNL     1      -0.248  -4.130  29.953  0.00  0.00    +0.094 C 
BRANCH  38  39
ATOM     39  C   UNL     1      -1.063  -3.114  29.318  0.00  0.00    +0.107 C 
ATOM     40  N   UNL     1      -1.654  -2.151  29.807  0.00  0.00    -0.263 NA
ATOM     41  C   UNL     1      -2.407  -1.257  29.054  0.00  0.00    +0.138 C 
ATOM     42  C   UNL     1      -2.073  -1.326  27.586  0.00  0.00    +0.090 C 
ATOM     43  S   UNL     1      -1.404  -3.040  27.562  0.00  0.00    -0.093 S 
ENDBRANCH  38  39
BRANCH  37  44
ATOM     44  O   UNL     1      -2.304  -5.173  30.637  0.00  0.00    -0.505 OA
ATOM     45  H   UNL     1      -2.771  -4.447  30.272  0.00  0.00    +0.292 HD
ENDBRANCH  37  44
BRANCH  34  46
ATOM     46  O   UNL     1       3.234  -5.186  30.614  0.00  0.00    -0.503 OA
ATOM     47  H   UNL     1       3.695  -5.425  29.834  0.00  0.00    +0.292 HD
ENDBRANCH  34  46
ENDBRANCH  32  33
ENDBRANCH   4  32
TORSDOF 11
ENDMDL
