REMARK  Name = =
REMARK  11 active torsions:
REMARK  status: ('A' for Active; 'I' for Inactive)
REMARK    1  A    between atoms: C_1  and  C_15
REMARK    2  A    between atoms: C_3  and  N_7
REMARK    3  A    between atoms: C_4  and  O_29
REMARK    4  A    between atoms: C_16  and  N_21
REMARK    5  A    between atoms: N_21  and  O_25
REMARK    6  A    between atoms: O_25  and  C_26
REMARK    7  A    between atoms: C_26  and  O_28
REMARK    8  A    between atoms: O_29  and  C_30
REMARK    9  A    between atoms: C_31  and  O_42
REMARK   10  A    between atoms: C_34  and  O_41
REMARK   11  A    between atoms: C_35  and  C_36
REMARK                            x       y       z     vdW  Elec       q    Type
REMARK                         _______ _______ _______ _____ _____    ______ ____
ROOT
ATOM      1  C   UNL     1       3.733  -5.025  24.156  0.00  0.00    +0.008 C 
ATOM      2  C   UNL     1       4.285  -5.989  23.356  0.00  0.00    +0.017 C 
ATOM      3  C   UNL     1       4.970  -5.704  22.155  0.00  0.00    +0.095 C 
ATOM      4  C   UNL     1       5.108  -4.397  21.731  0.00  0.00    +0.159 C 
ATOM      5  C   UNL     1       4.534  -3.427  22.570  0.00  0.00    +0.039 C 
ATOM      6  C   UNL     1       3.873  -3.721  23.736  0.00  0.00    +0.001 C 
ENDROOT
BRANCH   3   7
ATOM      7  N   UNL     1       5.494  -6.771  21.406  0.00  0.00    -0.201 N 
ATOM      8  C   UNL     1       6.832  -7.188  21.593  0.00  0.00    +0.258 C 
ATOM      9  O   UNL     1       7.529  -6.705  22.534  0.00  0.00    -0.269 OA
ATOM     10  C   UNL     1       7.505  -8.186  20.739  0.00  0.00    +0.055 C 
ATOM     11  C   UNL     1       6.638  -8.963  19.822  0.00  0.00    -0.012 C 
ATOM     12  C   UNL     1       5.166  -8.862  20.024  0.00  0.00    +0.112 C 
ATOM     13  C   UNL     1       4.726  -7.500  20.464  0.00  0.00    +0.240 C 
ATOM     14  O   UNL     1       3.679  -7.030  19.989  0.00  0.00    -0.274 OA
ENDBRANCH   3   7
BRANCH   1  15
ATOM     15  C   UNL     1       2.979  -5.404  25.388  0.00  0.00    +0.159 C 
ATOM     16  C   UNL     1       3.718  -6.239  26.355  0.00  0.00    +0.148 C 
ATOM     17  C   UNL     1       2.754  -6.574  27.493  0.00  0.00    +0.029 C 
ATOM     18  C   UNL     1       1.345  -6.145  27.185  0.00  0.00    +0.034 C 
ATOM     19  C   UNL     1       1.218  -4.754  26.654  0.00  0.00    +0.143 C 
ATOM     20  O   UNL     1       2.369  -4.322  25.963  0.00  0.00    -0.350 OA
BRANCH  16  21
ATOM     21  N   UNL     1       4.901  -5.668  26.900  0.00  0.00    -0.100 N 
ATOM     22  C   UNL     1       4.987  -4.835  28.021  0.00  0.00    +0.333 C 
ATOM     23  O   UNL     1       6.150  -4.412  28.358  0.00  0.00    -0.250 OA
ATOM     24  N   UNL     1       3.940  -4.388  28.852  0.00  0.00    -0.311 N 
ATOM     25  H   UNL     1       3.013  -4.664  28.667  0.00  0.00    +0.147 HD
ATOM     26  H   UNL     1       4.136  -3.800  29.617  0.00  0.00    +0.147 HD
BRANCH  21  27
ATOM     27  O   UNL     1       6.093  -6.003  26.238  0.00  0.00    -0.309 OA
BRANCH  27  28
ATOM     28  C   UNL     1       6.404  -7.374  26.341  0.00  0.00    +0.531 C 
ATOM     29  O   UNL     1       6.399  -7.971  27.446  0.00  0.00    -0.201 OA
BRANCH  28  30
ATOM     30  O   UNL     1       6.730  -8.113  25.215  0.00  0.00    -0.448 OA
ATOM     31  H   UNL     1       6.935  -9.024  25.296  0.00  0.00    +0.299 HD
ENDBRANCH  28  30
ENDBRANCH  27  28
ENDBRANCH  21  27
ENDBRANCH  16  21
ENDBRANCH   1  15
BRANCH   4  32
ATOM     32  O   UNL     1       5.719  -3.975  20.616  0.00  0.00    -0.449 OA
BRANCH  32  33
ATOM     33  C   UNL     1       5.732  -4.248  19.305  0.00  0.00    +0.183 C 
ATOM     34  C   UNL     1       6.926  -4.841  18.810  0.00  0.00    +0.169 C 
ATOM     35  C   UNL     1       7.004  -5.152  17.484  0.00  0.00    +0.043 C 
ATOM     36  C   UNL     1       5.963  -4.901  16.637  0.00  0.00    +0.040 C 
ATOM     37  C   UNL     1       4.823  -4.331  17.120  0.00  0.00    +0.139 C 
ATOM     38  C   UNL     1       4.666  -3.983  18.476  0.00  0.00    +0.094 C 
BRANCH  38  39
ATOM     39  C   UNL     1       3.408  -3.397  18.892  0.00  0.00    +0.107 C 
ATOM     40  N   UNL     1       3.057  -2.218  18.932  0.00  0.00    -0.263 NA
ATOM     41  C   UNL     1       1.799  -1.812  19.364  0.00  0.00    +0.138 C 
ATOM     42  C   UNL     1       0.801  -2.941  19.353  0.00  0.00    +0.090 C 
ATOM     43  S   UNL     1       1.998  -4.334  19.474  0.00  0.00    -0.093 S 
ENDBRANCH  38  39
BRANCH  37  44
ATOM     44  O   UNL     1       3.746  -4.071  16.256  0.00  0.00    -0.505 OA
ATOM     45  H   UNL     1       3.812  -4.288  15.347  0.00  0.00    +0.292 HD
ENDBRANCH  37  44
BRANCH  34  46
ATOM     46  O   UNL     1       7.987  -5.090  19.669  0.00  0.00    -0.503 OA
ATOM     47  H   UNL     1       7.916  -4.870  20.577  0.00  0.00    +0.292 HD
ENDBRANCH  34  46
ENDBRANCH  32  33
ENDBRANCH   4  32
TORSDOF 11
