REMARK  Name = =
REMARK  0 active torsions:
REMARK  status: ('A' for Active; 'I' for Inactive)
REMARK                            x       y       z     vdW  Elec       q    Type
REMARK                         _______ _______ _______ _____ _____    ______ ____
ROOT
ATOM      1  N   UNL     1      -9.475 -42.027  27.972  0.00  0.00    -0.218 NA
ATOM      2  C   UNL     1      -8.912 -42.816  29.076  0.00  0.00    +0.089 C 
ATOM      3  C   UNL     1      -9.561 -44.183  28.979  0.00  0.00    +0.019 C 
ATOM      4  C   UNL     1     -10.928 -44.149  28.393  0.00  0.00    +0.003 C 
ATOM      5  C   UNL     1     -11.681 -42.869  28.662  0.00  0.00    +0.019 C 
ATOM      6  C   UNL     1     -10.820 -41.677  28.373  0.00  0.00    +0.089 C 
ENDROOT
TORSDOF 0
