REMARK  Name = =
REMARK  3 active torsions:
REMARK  status: ('A' for Active; 'I' for Inactive)
REMARK    1  A    between atoms: C_1  and  C_17
REMARK    2  A    between atoms: C_7  and  C_27
REMARK    3  A    between atoms: N_15  and  C_23
REMARK                            x       y       z     vdW  Elec       q    Type
REMARK                         _______ _______ _______ _____ _____    ______ ____
ROOT
ATOM      1  C   UNL     1     -12.115 -42.037  27.716  0.00  0.00    -0.025 C 
ATOM      2  C   UNL     1     -12.257 -43.223  28.446  0.00  0.00    -0.025 C 
ATOM      3  C   UNL     1     -11.153 -43.834  28.979  0.00  0.00    -0.017 C 
ATOM      4  C   UNL     1      -9.892 -43.311  28.816  0.00  0.00    -0.004 C 
ATOM      5  C   UNL     1      -9.762 -42.150  28.100  0.00  0.00    -0.001 C 
ATOM      6  C   UNL     1     -10.858 -41.514  27.552  0.00  0.00    -0.005 C 
ATOM      7  C   UNL     1     -11.290 -45.108  29.774  0.00  0.00    +0.084 C 
ATOM      8  C   UNL     1     -12.459 -44.932  30.649  0.00  0.00    -0.016 C 
ATOM      9  C   UNL     1     -13.567 -44.307  30.118  0.00  0.00    -0.021 C 
ATOM     10  C   UNL     1     -13.558 -43.855  28.682  0.00  0.00    +0.052 C 
ATOM     11  C   UNL     1     -14.660 -44.136  30.939  0.00  0.00    -0.004 C 
ATOM     12  C   UNL     1     -14.665 -44.571  32.255  0.00  0.00    -0.000 C 
ATOM     13  C   UNL     1     -13.564 -45.195  32.790  0.00  0.00    -0.000 C 
ATOM     14  C   UNL     1     -12.459 -45.370  31.966  0.00  0.00    -0.004 C 
ENDROOT
BRANCH   1  17
ATOM     15  N   UNL     1     -14.831 -42.861  25.838  0.00  0.00    -0.292 N 
ATOM     16  C   UNL     1     -13.757 -41.969  25.848  0.00  0.00    +0.096 C 
ATOM     17  C   UNL     1     -13.317 -41.389  27.132  0.00  0.00    +0.042 C 
ATOM     18  C   UNL     1     -14.367 -41.397  28.217  0.00  0.00    +0.008 C 
ATOM     19  C   UNL     1     -15.248 -42.601  28.191  0.00  0.00    +0.022 C 
ATOM     20  C   UNL     1     -15.846 -42.691  26.824  0.00  0.00    +0.092 C 
BRANCH  15  23
ATOM     21  N   UNL     1     -16.784 -43.028  22.820  0.00  0.00    -0.145 NA
ATOM     22  N   UNL     1     -16.339 -42.660  24.003  0.00  0.00    -0.133 NA
ATOM     23  C   UNL     1     -15.268 -43.277  24.581  0.00  0.00    +0.153 C 
ATOM     24  C   UNL     1     -14.663 -44.288  23.901  0.00  0.00    +0.038 C 
ATOM     25  C   UNL     1     -15.152 -44.659  22.647  0.00  0.00    +0.025 C 
ATOM     26  C   UNL     1     -16.231 -44.014  22.104  0.00  0.00    +0.122 C 
ENDBRANCH  15  23
ENDBRANCH   1  17
BRANCH   7  27
ATOM     27  C   UNL     1     -10.038 -45.456  30.421  0.00  0.00    +0.067 C 
ATOM     28  C   UNL     1      -9.406 -46.637  30.147  0.00  0.00    +0.015 C 
ATOM     29  C   UNL     1      -8.200 -46.960  30.761  0.00  0.00    +0.003 C 
ATOM     30  C   UNL     1      -7.638 -46.074  31.657  0.00  0.00    +0.021 C 
ATOM     31  C   UNL     1      -8.301 -44.893  31.912  0.00  0.00    +0.098 C 
ATOM     32  N   UNL     1      -9.472 -44.618  31.293  0.00  0.00    -0.248 NA
ENDBRANCH   7  27
TORSDOF 3
