REMARK  Name = =
REMARK  4 active torsions:
REMARK  status: ('A' for Active; 'I' for Inactive)
REMARK    1  A    between atoms: C_1  and  C_17
REMARK    2  A    between atoms: C_7  and  C_27
REMARK    3  A    between atoms: N_15  and  C_23
REMARK    4  A    between atoms: C_31  and  S_33
REMARK                            x       y       z     vdW  Elec       q    Type
REMARK                         _______ _______ _______ _____ _____    ______ ____
ROOT
ATOM      1  C   UNL     1     -14.990 -43.142  27.755  0.00  0.00    -0.025 C 
ATOM      2  C   UNL     1     -15.794 -43.047  26.645  0.00  0.00    -0.025 C 
ATOM      3  C   UNL     1     -17.153 -42.776  26.715  0.00  0.00    -0.017 C 
ATOM      4  C   UNL     1     -17.736 -42.594  27.943  0.00  0.00    -0.004 C 
ATOM      5  C   UNL     1     -16.988 -42.677  29.088  0.00  0.00    -0.001 C 
ATOM      6  C   UNL     1     -15.618 -42.950  28.967  0.00  0.00    -0.005 C 
ATOM      7  C   UNL     1     -17.986 -42.648  25.450  0.00  0.00    +0.084 C 
ATOM      8  C   UNL     1     -17.108 -41.981  24.411  0.00  0.00    -0.016 C 
ATOM      9  C   UNL     1     -15.764 -42.259  24.379  0.00  0.00    -0.021 C 
ATOM     10  C   UNL     1     -15.232 -43.248  25.318  0.00  0.00    +0.052 C 
ATOM     11  C   UNL     1     -14.949 -41.654  23.469  0.00  0.00    -0.004 C 
ATOM     12  C   UNL     1     -15.504 -40.752  22.575  0.00  0.00    -0.000 C 
ATOM     13  C   UNL     1     -16.845 -40.444  22.570  0.00  0.00    -0.000 C 
ATOM     14  C   UNL     1     -17.639 -41.088  23.521  0.00  0.00    -0.004 C 
ENDROOT
BRANCH   1  17
ATOM     15  N   UNL     1     -11.481 -43.759  28.994  0.00  0.00    -0.292 N 
ATOM     16  C   UNL     1     -12.844 -43.356  29.021  0.00  0.00    +0.096 C 
ATOM     17  C   UNL     1     -13.541 -43.427  27.708  0.00  0.00    +0.042 C 
ATOM     18  C   UNL     1     -13.238 -44.760  27.099  0.00  0.00    +0.008 C 
ATOM     19  C   UNL     1     -12.575 -45.658  28.087  0.00  0.00    +0.022 C 
ATOM     20  C   UNL     1     -11.232 -45.043  28.421  0.00  0.00    +0.092 C 
BRANCH  15  23
ATOM     21  N   UNL     1      -8.390 -42.023  29.419  0.00  0.00    -0.145 NA
ATOM     22  N   UNL     1      -9.397 -42.864  29.543  0.00  0.00    -0.133 NA
ATOM     23  C   UNL     1     -10.507 -42.803  28.745  0.00  0.00    +0.153 C 
ATOM     24  C   UNL     1     -10.500 -41.807  27.806  0.00  0.00    +0.038 C 
ATOM     25  C   UNL     1      -9.454 -40.917  27.661  0.00  0.00    +0.025 C 
ATOM     26  C   UNL     1      -8.376 -41.047  28.504  0.00  0.00    +0.122 C 
ENDBRANCH  15  23
ENDBRANCH   1  17
BRANCH   7  27
ATOM     27  C   UNL     1     -19.230 -41.943  25.709  0.00  0.00    +0.067 C 
ATOM     28  C   UNL     1     -19.279 -40.565  25.517  0.00  0.00    +0.015 C 
ATOM     29  C   UNL     1     -20.414 -39.852  25.747  0.00  0.00    +0.003 C 
ATOM     30  C   UNL     1     -21.557 -40.533  26.188  0.00  0.00    +0.024 C 
ATOM     31  C   UNL     1     -21.516 -41.875  26.378  0.00  0.00    +0.095 C 
ATOM     32  N   UNL     1     -20.348 -42.530  26.130  0.00  0.00    -0.244 NA
BRANCH  31  33
ATOM     33  S   UNL     1     -22.889 -42.765  26.920  0.00  0.00    -0.114 S 
ATOM     34  C   UNL     1     -23.371 -44.226  25.918  0.00  0.00    +0.135 C 
ATOM     35  C   UNL     1     -24.029 -45.004  26.993  0.00  0.00    +0.239 C 
ATOM     36  O   UNL     1     -25.134 -45.612  26.771  0.00  0.00    -0.274 OA
ATOM     37  N   UNL     1     -23.313 -44.975  28.196  0.00  0.00    -0.247 N 
ATOM     38  C   UNL     1     -22.751 -43.712  28.491  0.00  0.00    +0.265 C 
ATOM     39  O   UNL     1     -22.273 -43.311  29.542  0.00  0.00    -0.264 OA
ATOM     40  H   UNL     1     -23.717 -41.686  26.928  0.00  0.00    +0.098 HD
ATOM     41  H   UNL     1     -23.211 -45.760  28.781  0.00  0.00    +0.158 HD
ENDBRANCH  31  33
ENDBRANCH   7  27
TORSDOF 4
