MODEL 1
REMARK VINA RESULT:    -7.245      0.000      0.000
REMARK INTER + INTRA:         -11.636
REMARK INTER:                  -9.998
REMARK INTRA:                  -1.638
REMARK UNBOUND:                -1.638
REMARK  Name = =
REMARK  7 active torsions:
REMARK  status: ('A' for Active; 'I' for Inactive)
REMARK    1  A    between atoms: C_1  and  C_32
REMARK    2  A    between atoms: C_1  and  C_40
REMARK    3  A    between atoms: C_4  and  C_22
REMARK    4  A    between atoms: C_5  and  C_8
REMARK    5  A    between atoms: C_32  and  N_39
REMARK    6  A    between atoms: C_40  and  O_42
REMARK    7  A    between atoms: O_42  and  N_43
REMARK                            x       y       z     vdW  Elec       q    Type
REMARK                         _______ _______ _______ _____ _____    ______ ____
ROOT
ATOM      1  C   UNL     1      63.024 162.630  40.201  0.00  0.00    +0.167 C 
ATOM      2  C   UNL     1      62.239 162.173  38.990  0.00  0.00    +0.167 C 
ATOM      3  O   UNL     1      62.750 161.496  38.143  0.00  0.00    -0.295 OA
ATOM      4  C   UNL     1      60.833 162.607  38.910  0.00  0.00    +0.098 C 
ATOM      5  C   UNL     1      60.148 162.706  40.160  0.00  0.00    +0.013 C 
ATOM      6  C   UNL     1      60.867 163.561  41.175  0.00  0.00    +0.002 C 
ATOM      7  C   UNL     1      62.339 163.647  41.020  0.00  0.00    +0.020 C 
ENDROOT
BRANCH   5   8
ATOM      8  C   UNL     1      58.644 162.845  40.242  0.00  0.00    +0.005 C 
ATOM      9  C   UNL     1      58.254 161.856  41.315  0.00  0.00    +0.026 C 
ATOM     10  C   UNL     1      56.789 161.828  41.460  0.00  0.00    -0.026 C 
ATOM     11  C   UNL     1      56.125 163.021  41.460  0.00  0.00    -0.026 C 
ATOM     12  C   UNL     1      54.748 163.006  41.661  0.00  0.00    -0.005 C 
ATOM     13  C   UNL     1      54.064 161.821  41.857  0.00  0.00    -0.000 C 
ATOM     14  C   UNL     1      54.761 160.636  41.854  0.00  0.00    -0.000 C 
ATOM     15  C   UNL     1      56.116 160.614  41.656  0.00  0.00    -0.005 C 
ATOM     16  C   UNL     1      54.044 159.468  42.080  0.00  0.00    -0.000 C 
ATOM     17  C   UNL     1      52.684 159.461  42.305  0.00  0.00    -0.000 C 
ATOM     18  C   UNL     1      52.002 160.672  42.306  0.00  0.00    -0.000 C 
ATOM     19  C   UNL     1      52.700 161.831  42.083  0.00  0.00    -0.000 C 
ATOM     20  C   UNL     1      56.881 164.274  41.286  0.00  0.00    +0.026 C 
ATOM     21  C   UNL     1      58.084 164.182  40.392  0.00  0.00    +0.005 C 
ENDBRANCH   5   8
BRANCH   4  22
ATOM     22  C   UNL     1      60.275 162.655  37.575  0.00  0.00    +0.066 C 
ATOM     23  N   UNL     1      59.506 161.724  36.989  0.00  0.00    -0.248 NA
ATOM     24  C   UNL     1      58.780 161.920  35.881  0.00  0.00    +0.098 C 
ATOM     25  C   UNL     1      58.789 163.129  35.266  0.00  0.00    +0.021 C 
ATOM     26  C   UNL     1      59.552 164.140  35.791  0.00  0.00    +0.003 C 
ATOM     27  C   UNL     1      60.267 163.879  36.916  0.00  0.00    +0.014 C 
ATOM     28  C   UNL     1      61.098 164.862  37.385  0.00  0.00    +0.001 C 
ATOM     29  C   UNL     1      61.257 166.110  36.799  0.00  0.00    +0.000 C 
ATOM     30  C   UNL     1      60.515 166.350  35.664  0.00  0.00    +0.000 C 
ATOM     31  C   UNL     1      59.669 165.386  35.156  0.00  0.00    +0.000 C 
ENDBRANCH   4  22
BRANCH   1  32
ATOM     32  C   UNL     1      63.667 161.475  40.870  0.00  0.00    +0.160 C 
ATOM     33  C   UNL     1      63.823 161.535  42.357  0.00  0.00    +0.117 C 
ATOM     34  N   UNL     1      62.641 160.735  42.522  0.00  0.00    -0.301 N 
ATOM     35  C   UNL     1      62.660 160.403  41.141  0.00  0.00    +0.241 C 
ATOM     36  O   UNL     1      62.035 159.529  40.494  0.00  0.00    -0.273 OA
ATOM     37  H   UNL     1      62.057 160.511  43.282  0.00  0.00    +0.150 HD
BRANCH  32  40
ATOM     38  C   UNL     1      66.117 161.123  40.871  0.00  0.00    +0.300 C 
ATOM     39  O   UNL     1      66.291 161.711  41.980  0.00  0.00    -0.265 OA
ATOM     40  N   UNL     1      64.864 160.954  40.236  0.00  0.00    -0.291 N 
ATOM     41  H   UNL     1      64.804 160.486  39.371  0.00  0.00    +0.150 HD
ENDBRANCH  32  40
ENDBRANCH   1  32
BRANCH   1  42
ATOM     42  C   UNL     1      64.158 163.420  39.540  0.00  0.00    +0.342 C 
ATOM     43  O   UNL     1      64.809 164.224  40.239  0.00  0.00    -0.248 OA
BRANCH  42  44
ATOM     44  O   UNL     1      64.499 163.288  38.215  0.00  0.00    -0.371 OA
BRANCH  44  45
ATOM     45  N   UNL     1      65.669 162.781  37.764  0.00  0.00    -0.165 NA
ATOM     46  H   UNL     1      66.345 162.753  38.527  0.00  0.00    +0.163 HD
ATOM     47  H   UNL     1      66.029 163.371  37.013  0.00  0.00    +0.163 HD
ENDBRANCH  44  45
ENDBRANCH  42  44
ENDBRANCH   1  42
TORSDOF 7
ENDMDL
