REMARK  Name = =
REMARK  10 active torsions:
REMARK  status: ('A' for Active; 'I' for Inactive)
REMARK    1  A    between atoms: C_1  and  N_29
REMARK    2  A    between atoms: C_2  and  C_8
REMARK    3  A    between atoms: C_6  and  N_16
REMARK    4  A    between atoms: C_7  and  C_23
REMARK    5  A    between atoms: C_9  and  N_15
REMARK    6  A    between atoms: C_20  and  O_22
REMARK    7  A    between atoms: N_29  and  C_31
REMARK    8  A    between atoms: C_31  and  C_32
REMARK    9  A    between atoms: N_33  and  S_35
REMARK   10  A    between atoms: S_35  and  N_38
REMARK                            x       y       z     vdW  Elec       q    Type
REMARK                         _______ _______ _______ _____ _____    ______ ____
ROOT
ATOM      1  C   UNL     1      -0.541  -4.945  29.617  0.00  0.00    +0.093 C 
ATOM      2  C   UNL     1      -0.728  -6.391  29.684  0.00  0.00    +0.071 C 
ATOM      3  C   UNL     1      -0.784  -6.846  28.266  0.00  0.00    +0.125 C 
ATOM      4  O   UNL     1      -1.305  -5.661  27.654  0.00  0.00    -0.355 OA
ATOM      5  C   UNL     1      -0.276  -4.746  28.105  0.00  0.00    +0.149 C 
ATOM      6  C   UNL     1       0.874  -5.407  27.465  0.00  0.00    +0.120 C 
ATOM      7  C   UNL     1       0.690  -6.836  27.772  0.00  0.00    +0.076 C 
ENDROOT
BRANCH   2   8
ATOM      8  C   UNL     1      -1.391  -7.092  30.733  0.00  0.00    +0.032 C 
ATOM      9  C   UNL     1      -2.072  -8.278  30.571  0.00  0.00    +0.126 C 
ATOM     10  N   UNL     1      -2.540  -8.956  31.634  0.00  0.00    -0.200 NA
ATOM     11  C   UNL     1      -2.383  -8.535  32.897  0.00  0.00    +0.215 C 
ATOM     12  N   UNL     1      -1.727  -7.385  33.094  0.00  0.00    -0.213 NA
ATOM     13  C   UNL     1      -1.250  -6.694  32.055  0.00  0.00    +0.100 C 
ATOM     14  N   UNL     1      -2.882  -9.260  34.015  0.00  0.00    -0.327 N 
ATOM     15  H   UNL     1      -3.365 -10.106  33.877  0.00  0.00    +0.145 HD
ATOM     16  H   UNL     1      -2.744  -8.915  34.927  0.00  0.00    +0.145 HD
BRANCH   9  17
ATOM     17  N   UNL     1      -2.356  -8.838  29.295  0.00  0.00    -0.343 N 
ATOM     18  H   UNL     1      -2.040  -8.388  28.478  0.00  0.00    +0.144 HD
ATOM     19  H   UNL     1      -2.869  -9.676  29.228  0.00  0.00    +0.144 HD
ENDBRANCH   9  17
ENDBRANCH   2   8
BRANCH   6  20
ATOM     20  N   UNL     1       2.137  -4.805  27.602  0.00  0.00    -0.180 N 
ATOM     21  C   UNL     1       3.013  -4.907  28.690  0.00  0.00    +0.309 C 
ATOM     22  O   UNL     1       2.832  -5.591  29.706  0.00  0.00    -0.252 OA
ATOM     23  N   UNL     1       4.273  -4.172  28.697  0.00  0.00    -0.313 N 
ATOM     24  C   UNL     1       2.592  -3.994  26.482  0.00  0.00    +0.409 C 
ATOM     25  O   UNL     1       1.899  -3.853  25.469  0.00  0.00    -0.226 OA
ATOM     26  H   UNL     1       4.512  -3.598  27.934  0.00  0.00    +0.146 HD
ATOM     27  H   UNL     1       4.884  -4.250  29.465  0.00  0.00    +0.146 HD
BRANCH  24  28
ATOM     28  O   UNL     1       3.817  -3.382  26.577  0.00  0.00    -0.466 OA
ATOM     29  H   UNL     1       4.338  -3.493  27.348  0.00  0.00    +0.297 HD
ENDBRANCH  24  28
ENDBRANCH   6  20
BRANCH   7  30
ATOM     30  C   UNL     1       0.803  -7.790  26.632  0.00  0.00    +0.119 C 
ATOM     31  O   UNL     1       2.012  -7.521  25.970  0.00  0.00    -0.356 OA
ATOM     32  C   UNL     1       2.484  -8.711  25.421  0.00  0.00    +0.142 C 
ATOM     33  C   UNL     1       3.256  -9.391  26.567  0.00  0.00    +0.032 C 
ATOM     34  C   UNL     1       2.216  -9.596  27.660  0.00  0.00    +0.005 C 
ATOM     35  C   UNL     1       0.832  -9.239  27.148  0.00  0.00    +0.030 C 
ENDBRANCH   7  30
BRANCH   1  36
ATOM     36  N   UNL     1      -1.709  -4.074  29.762  0.00  0.00    -0.264 NA
ATOM     37  C   UNL     1      -1.122  -2.741  29.402  0.00  0.00    +0.090 C 
BRANCH  36  38
ATOM     38  C   UNL     1      -2.272  -3.894  31.030  0.00  0.00    +0.135 C 
BRANCH  38  39
ATOM     39  C   UNL     1      -3.734  -3.472  30.945  0.00  0.00    +0.133 C 
ATOM     40  N   UNL     1      -4.328  -2.995  32.131  0.00  0.00    -0.189 N 
ATOM     41  N   UNL     1      -4.401  -3.553  29.877  0.00  0.00    -0.287 NA
ATOM     42  H   UNL     1      -3.992  -3.303  33.004  0.00  0.00    +0.176 HD
ATOM     43  H   UNL     1      -3.975  -3.888  29.055  0.00  0.00    +0.188 HD
BRANCH  40  44
ATOM     44  S   UNL     1      -5.641  -1.874  32.066  0.00  0.00    +0.127 S 
ATOM     45  O   UNL     1      -5.287  -0.824  31.033  0.00  0.00    -0.135 OA
ATOM     46  O   UNL     1      -5.806  -1.176  33.400  0.00  0.00    -0.135 OA
BRANCH  44  47
ATOM     47  N   UNL     1      -7.100  -2.649  31.599  0.00  0.00    -0.165 N 
ATOM     48  C   UNL     1      -8.309  -1.921  31.541  0.00  0.00    +0.320 C 
ATOM     49  O   UNL     1      -8.224  -0.679  31.854  0.00  0.00    -0.263 OA
ATOM     50  H   UNL     1      -7.094  -3.607  31.370  0.00  0.00    +0.178 HD
ENDBRANCH  44  47
ENDBRANCH  40  44
ENDBRANCH  38  39
ENDBRANCH  36  38
ENDBRANCH   1  36
TORSDOF 10
