MODEL 1
REMARK VINA RESULT:   -10.031      0.000      0.000
REMARK INTER + INTRA:         -18.535
REMARK INTER:                 -17.654
REMARK INTRA:                  -0.881
REMARK UNBOUND:                -0.881
REMARK  Name = =
REMARK  15 active torsions:
REMARK  status: ('A' for Active; 'I' for Inactive)
REMARK    1  A    between atoms: C_1  and  C_9
REMARK    2  A    between atoms: C_1  and  C_19
REMARK    3  A    between atoms: N_2  and  N_18
REMARK    4  A    between atoms: C_5  and  O_13
REMARK    5  A    between atoms: O_13  and  S_14
REMARK    6  A    between atoms: S_14  and  N_17
REMARK    7  A    between atoms: C_19  and  C_20
REMARK    8  A    between atoms: C_19  and  C_23
REMARK    9  A    between atoms: C_23  and  C_25
REMARK   10  A    between atoms: C_25  and  O_27
REMARK   11  A    between atoms: O_27  and  N_28
REMARK   12  A    between atoms: N_28  and  N_31
REMARK   13  A    between atoms: C_29  and  C_35
REMARK   14  A    between atoms: C_32  and  O_34
REMARK   15  A    between atoms: C_35  and  O_37
REMARK                            x       y       z     vdW  Elec       q    Type
REMARK                         _______ _______ _______ _____ _____    ______ ____
ROOT
ATOM      1  C   UNL     1     -11.327 -44.330  31.069  0.00  0.00    +0.090 C 
ATOM      2  N   UNL     1     -10.676 -45.320  31.468  0.00  0.00    -0.192 NA
ENDROOT
BRANCH   1   9
ATOM      3  C   UNL     1     -11.782 -41.844  33.823  0.00  0.00    +0.137 C 
ATOM      4  C   UNL     1     -11.092 -42.664  32.928  0.00  0.00    +0.042 C 
ATOM      5  C   UNL     1      -9.641 -42.741  32.896  0.00  0.00    +0.173 C 
ATOM      6  C   UNL     1      -8.961 -41.926  34.007  0.00  0.00    +0.084 C 
ATOM      7  C   UNL     1      -9.811 -41.739  35.213  0.00  0.00    +0.208 C 
ATOM      8  O   UNL     1     -11.026 -41.117  34.739  0.00  0.00    -0.476 OA
ATOM      9  C   UNL     1     -11.866 -43.372  32.043  0.00  0.00    +0.017 C 
ATOM     10  C   UNL     1     -13.268 -43.240  32.076  0.00  0.00    +0.001 C 
ATOM     11  C   UNL     1     -13.913 -42.417  32.973  0.00  0.00    +0.003 C 
ATOM     12  C   UNL     1     -13.147 -41.710  33.860  0.00  0.00    +0.037 C 
BRANCH   5  13
ATOM     13  O   UNL     1      -9.053 -42.188  31.726  0.00  0.00    -0.228 OA
BRANCH  13  14
ATOM     14  S   UNL     1      -7.657 -43.093  31.398  0.00  0.00    +0.046 S 
ATOM     15  O   UNL     1      -6.426 -42.457  31.955  0.00  0.00    -0.056 OA
ATOM     16  O   UNL     1      -7.534 -43.272  29.894  0.00  0.00    -0.056 OA
BRANCH  14  17
ATOM     17  N   UNL     1      -7.806 -44.684  32.050  0.00  0.00    -0.204 NA
ATOM     18  H   UNL     1      -8.299 -44.642  32.942  0.00  0.00    +0.144 HD
ATOM     19  H   UNL     1      -6.877 -45.081  32.194  0.00  0.00    +0.144 HD
ENDBRANCH  14  17
ENDBRANCH  13  14
ENDBRANCH   5  13
ENDBRANCH   1   9
BRANCH   2  20
ATOM     20  N   UNL     1     -10.057 -46.362  30.875  0.00  0.00    -0.282 N 
ATOM     21  H   UNL     1     -10.011 -46.412  29.893  0.00  0.00    +0.164 HD
ATOM     22  H   UNL     1      -9.652 -47.072  31.424  0.00  0.00    +0.164 HD
ENDBRANCH   2  20
BRANCH   1  23
ATOM     23  C   UNL     1     -11.530 -44.075  29.638  0.00  0.00    +0.167 C 
BRANCH  23  24
ATOM     24  C   UNL     1     -11.222 -42.701  29.186  0.00  0.00    +0.164 C 
ATOM     25  O   UNL     1     -11.728 -41.738  29.763  0.00  0.00    -0.295 OA
ATOM     26  C   UNL     1     -10.321 -42.357  28.050  0.00  0.00    +0.073 C 
ENDBRANCH  23  24
BRANCH  23  27
ATOM     27  C   UNL     1     -12.928 -44.402  29.213  0.00  0.00    +0.262 C 
ATOM     28  O   UNL     1     -13.616 -45.133  29.943  0.00  0.00    -0.284 OA
BRANCH  27  29
ATOM     29  C   UNL     1     -13.442 -43.873  27.987  0.00  0.00    +0.400 C 
ATOM     30  O   UNL     1     -13.146 -44.399  26.857  0.00  0.00    -0.239 OA
BRANCH  29  31
ATOM     31  O   UNL     1     -14.291 -42.772  27.907  0.00  0.00    -0.318 OA
BRANCH  31  32
ATOM     32  N   UNL     1     -15.381 -42.695  27.096  0.00  0.00    -0.028 N 
ATOM     33  C   UNL     1     -16.570 -42.123  27.605  0.00  0.00    +0.374 C 
ATOM     34  O   UNL     1     -16.644 -41.685  28.793  0.00  0.00    -0.258 OA
BRANCH  32  35
ATOM     35  N   UNL     1     -15.355 -43.158  25.792  0.00  0.00    -0.163 N 
ATOM     36  C   UNL     1     -14.925 -42.310  24.738  0.00  0.00    +0.417 C 
ATOM     37  O   UNL     1     -14.556 -41.114  24.955  0.00  0.00    -0.225 OA
ATOM     38  H   UNL     1     -15.636 -44.080  25.594  0.00  0.00    +0.180 HD
BRANCH  36  39
ATOM     39  O   UNL     1     -14.922 -42.836  23.451  0.00  0.00    -0.465 OA
ATOM     40  H   UNL     1     -14.354 -42.474  22.798  0.00  0.00    +0.297 HD
ENDBRANCH  36  39
ENDBRANCH  32  35
BRANCH  33  41
ATOM     41  C   UNL     1     -17.765 -42.014  26.785  0.00  0.00    +0.397 C 
ATOM     42  O   UNL     1     -18.857 -42.469  27.212  0.00  0.00    -0.240 OA
BRANCH  41  43
ATOM     43  O   UNL     1     -17.728 -41.419  25.543  0.00  0.00    -0.474 OA
ATOM     44  H   UNL     1     -17.126 -41.727  24.894  0.00  0.00    +0.296 HD
ENDBRANCH  41  43
ENDBRANCH  33  41
ENDBRANCH  31  32
ENDBRANCH  29  31
ENDBRANCH  27  29
ENDBRANCH  23  27
ENDBRANCH   1  23
TORSDOF 15
ENDMDL
