REMARK  Name = =
REMARK  5 active torsions:
REMARK  status: ('A' for Active; 'I' for Inactive)
REMARK    1  A    between atoms: S_1  and  O_6
REMARK    2  A    between atoms: C_5  and  N_17
REMARK    3  A    between atoms: O_6  and  C_15
REMARK    4  A    between atoms: N_17  and  C_18
REMARK    5  A    between atoms: N_17  and  C_23
REMARK                            x       y       z     vdW  Elec       q    Type
REMARK                         _______ _______ _______ _____ _____    ______ ____
ROOT
ATOM      1  S   UNL     1      52.760 155.627  28.696  0.00  0.00    -0.012 S 
ATOM      2  C   UNL     1      52.938 157.372  27.791  0.00  0.00    +0.149 C 
ATOM      3  N   UNL     1      52.934 156.998  26.647  0.00  0.00    -0.232 NA
ATOM      4  C   UNL     1      52.834 155.735  26.176  0.00  0.00    +0.123 C 
ATOM      5  C   UNL     1      52.727 154.788  27.040  0.00  0.00    +0.123 C 
ATOM      6  H   UNL     1      53.592 155.188  29.678  0.00  0.00    +0.134 HD
ENDROOT
BRANCH   1   7
ATOM      7  O   UNL     1      50.966 155.684  29.295  0.00  0.00    -0.437 OA
BRANCH   7  16
ATOM      8  O   UNL     1      49.750 160.873  30.973  0.00  0.00    -0.476 OA
ATOM      9  C   UNL     1      48.481 161.228  31.519  0.00  0.00    +0.206 C 
ATOM     10  C   UNL     1      47.665 160.002  31.879  0.00  0.00    +0.052 C 
ATOM     11  C   UNL     1      47.631 159.101  30.659  0.00  0.00    +0.033 C 
ATOM     12  C   UNL     1      49.013 158.651  30.382  0.00  0.00    +0.015 C 
ATOM     13  C   UNL     1      50.036 159.583  30.558  0.00  0.00    +0.135 C 
ATOM     14  C   UNL     1      51.331 159.191  30.308  0.00  0.00    +0.040 C 
ATOM     15  C   UNL     1      51.621 157.926  29.900  0.00  0.00    +0.041 C 
ATOM     16  C   UNL     1      50.631 156.958  29.711  0.00  0.00    +0.153 C 
ATOM     17  C   UNL     1      49.343 157.380  29.969  0.00  0.00    +0.037 C 
ENDBRANCH   7  16
ENDBRANCH   1   7
BRANCH   5  18
ATOM     18  N   UNL     1      52.609 153.407  26.856  0.00  0.00    -0.220 N 
BRANCH  18  19
ATOM     19  C   UNL     1      53.028 152.722  25.648  0.00  0.00    +0.088 C 
ATOM     20  C   UNL     1      54.452 153.151  25.356  0.00  0.00    +0.021 C 
ATOM     21  C   UNL     1      55.267 151.874  25.386  0.00  0.00    +0.002 C 
ATOM     22  C   UNL     1      54.240 150.865  24.908  0.00  0.00    +0.002 C 
ATOM     23  C   UNL     1      53.031 151.235  25.775  0.00  0.00    +0.021 C 
ENDBRANCH  18  19
BRANCH  18  24
ATOM     24  C   UNL     1      52.061 152.557  27.862  0.00  0.00    +0.175 C 
ATOM     25  N   UNL     1      51.597 151.873  28.672  0.00  0.00    -0.174 NA
ENDBRANCH  18  24
ENDBRANCH   5  18
TORSDOF 5
