MODEL 1
REMARK VINA RESULT:    -6.911      0.000      0.000
REMARK INTER + INTRA:         -11.536
REMARK INTER:                 -10.144
REMARK INTRA:                  -1.392
REMARK UNBOUND:                -1.392
REMARK  Name = =
REMARK  10 active torsions:
REMARK  status: ('A' for Active; 'I' for Inactive)
REMARK    1  A    between atoms: N_1  and  N_10
REMARK    2  A    between atoms: C_5  and  N_16
REMARK    3  A    between atoms: C_7  and  C_28
REMARK    4  A    between atoms: C_9  and  S_33
REMARK    5  A    between atoms: N_16  and  C_17
REMARK    6  A    between atoms: C_25  and  O_27
REMARK    7  A    between atoms: C_29  and  C_30
REMARK    8  A    between atoms: C_30  and  O_32
REMARK    9  A    between atoms: S_33  and  S_34
REMARK   10  A    between atoms: S_33  and  S_35
REMARK                            x       y       z     vdW  Elec       q    Type
REMARK                         _______ _______ _______ _____ _____    ______ ____
ROOT
ATOM      1  N   UNL     1      61.529 162.740  37.960  0.00  0.00    -0.172 NA
ATOM      2  C   UNL     1      61.568 164.051  37.487  0.00  0.00    +0.089 C 
ATOM      3  C   UNL     1      60.802 164.202  36.254  0.00  0.00    +0.021 C 
ATOM      4  C   UNL     1      60.041 162.928  36.085  0.00  0.00    +0.040 C 
ATOM      5  C   UNL     1      60.394 162.106  37.249  0.00  0.00    +0.149 C 
ATOM      6  C   UNL     1      59.846 165.330  36.162  0.00  0.00    +0.006 C 
ATOM      7  C   UNL     1      60.335 166.611  36.781  0.00  0.00    +0.023 C 
ATOM      8  C   UNL     1      61.656 166.466  37.469  0.00  0.00    +0.016 C 
ATOM      9  C   UNL     1      61.715 165.212  38.360  0.00  0.00    +0.062 C 
ENDROOT
BRANCH   1  10
ATOM     10  N   UNL     1      62.275 161.993  38.868  0.00  0.00    -0.176 N 
ATOM     11  N   UNL     1      62.167 161.952  40.187  0.00  0.00    -0.215 N 
ATOM     12  C   UNL     1      63.053 161.116  40.755  0.00  0.00    +0.264 C 
ATOM     13  O   UNL     1      63.213 160.848  41.975  0.00  0.00    -0.269 OA
ATOM     14  C   UNL     1      63.788 160.571  39.754  0.00  0.00    +0.078 C 
ATOM     15  C   UNL     1      63.295 161.125  38.598  0.00  0.00    +0.103 C 
ATOM     16  H   UNL     1      61.508 162.478  40.696  0.00  0.00    +0.175 HD
ENDBRANCH   1  10
BRANCH   5  17
ATOM     17  N   UNL     1      59.299 161.886  38.128  0.00  0.00    -0.319 N 
ATOM     18  H   UNL     1      58.685 162.626  38.338  0.00  0.00    +0.148 HD
BRANCH  17  19
ATOM     19  C   UNL     1      59.085 160.614  38.701  0.00  0.00    +0.066 C 
ATOM     20  C   UNL     1      58.920 160.539  40.090  0.00  0.00    +0.095 C 
ATOM     21  N   UNL     1      58.965 161.683  40.791  0.00  0.00    -0.243 NA
ATOM     22  C   UNL     1      58.813 161.680  42.147  0.00  0.00    +0.099 C 
ATOM     23  C   UNL     1      58.609 160.470  42.775  0.00  0.00    +0.021 C 
ATOM     24  C   UNL     1      58.563 159.293  42.044  0.00  0.00    +0.003 C 
ATOM     25  C   UNL     1      58.719 159.303  40.663  0.00  0.00    +0.022 C 
ATOM     26  C   UNL     1      58.685 158.184  39.881  0.00  0.00    +0.038 C 
ATOM     27  C   UNL     1      58.843 158.216  38.513  0.00  0.00    +0.135 C 
ATOM     28  C   UNL     1      59.045 159.471  37.935  0.00  0.00    +0.052 C 
BRANCH  27  29
ATOM     29  O   UNL     1      58.809 157.082  37.715  0.00  0.00    -0.505 OA
ATOM     30  H   UNL     1      58.875 156.233  38.104  0.00  0.00    +0.292 HD
ENDBRANCH  27  29
ENDBRANCH  17  19
ENDBRANCH   5  17
BRANCH   7  31
ATOM     31  C   UNL     1      60.492 167.680  35.761  0.00  0.00    -0.020 C 
ATOM     32  C   UNL     1      59.964 167.609  34.554  0.00  0.00    +0.077 C 
BRANCH  32  33
ATOM     33  C   UNL     1      60.143 168.681  33.587  0.00  0.00    +0.338 C 
ATOM     34  O   UNL     1      59.142 169.344  33.207  0.00  0.00    -0.245 OA
BRANCH  33  35
ATOM     35  O   UNL     1      61.366 169.023  33.049  0.00  0.00    -0.477 OA
ATOM     36  H   UNL     1      62.065 169.297  33.611  0.00  0.00    +0.295 HD
ENDBRANCH  33  35
ENDBRANCH  32  33
ENDBRANCH   7  31
BRANCH   9  37
ATOM     37  S   UNL     1      60.767 165.333  39.752  0.00  0.00    -0.151 S 
ATOM     38  H   UNL     1      61.365 164.338  40.461  0.00  0.00    +0.104 HD
BRANCH  37  39
ATOM     39  S   UNL     1      59.305 165.113  39.492  0.00  0.00    -0.123 S 
ATOM     40  H   UNL     1      58.988 163.816  39.753  0.00  0.00    +0.113 HD
ENDBRANCH  37  39
BRANCH  37  41
ATOM     41  S   UNL     1      60.852 166.711  40.707  0.00  0.00    -0.123 S 
ATOM     42  H   UNL     1      59.782 166.748  41.544  0.00  0.00    +0.113 HD
ENDBRANCH  37  41
ENDBRANCH   9  37
TORSDOF 10
ENDMDL
