REMARK  Name = =
REMARK  10 active torsions:
REMARK  status: ('A' for Active; 'I' for Inactive)
REMARK    1  A    between atoms: N_1  and  N_10
REMARK    2  A    between atoms: C_5  and  N_16
REMARK    3  A    between atoms: C_7  and  C_28
REMARK    4  A    between atoms: C_9  and  S_33
REMARK    5  A    between atoms: N_16  and  C_17
REMARK    6  A    between atoms: C_25  and  O_27
REMARK    7  A    between atoms: C_29  and  C_30
REMARK    8  A    between atoms: C_30  and  O_32
REMARK    9  A    between atoms: S_33  and  S_34
REMARK   10  A    between atoms: S_33  and  S_35
REMARK                            x       y       z     vdW  Elec       q    Type
REMARK                         _______ _______ _______ _____ _____    ______ ____
ROOT
ATOM      1  N   UNL     1      51.891 154.685  29.545  0.00  0.00    -0.172 NA
ATOM      2  C   UNL     1      51.812 155.976  30.067  0.00  0.00    +0.089 C 
ATOM      3  C   UNL     1      52.929 156.805  29.626  0.00  0.00    +0.021 C 
ATOM      4  C   UNL     1      53.625 156.023  28.561  0.00  0.00    +0.040 C 
ATOM      5  C   UNL     1      52.856 154.780  28.425  0.00  0.00    +0.149 C 
ATOM      6  C   UNL     1      52.628 158.153  29.091  0.00  0.00    +0.006 C 
ATOM      7  C   UNL     1      51.531 158.880  29.821  0.00  0.00    +0.023 C 
ATOM      8  C   UNL     1      50.880 158.051  30.883  0.00  0.00    +0.016 C 
ATOM      9  C   UNL     1      50.548 156.630  30.393  0.00  0.00    +0.062 C 
ENDROOT
BRANCH   1  10
ATOM     10  N   UNL     1      51.306 153.458  29.847  0.00  0.00    -0.176 N 
ATOM     11  N   UNL     1      50.583 153.129  30.906  0.00  0.00    -0.215 N 
ATOM     12  C   UNL     1      50.171 151.850  30.876  0.00  0.00    +0.264 C 
ATOM     13  O   UNL     1      49.473 151.227  31.720  0.00  0.00    -0.269 OA
ATOM     14  C   UNL     1      50.648 151.302  29.731  0.00  0.00    +0.078 C 
ATOM     15  C   UNL     1      51.346 152.309  29.110  0.00  0.00    +0.103 C 
ATOM     16  H   UNL     1      50.370 153.754  31.637  0.00  0.00    +0.175 HD
ENDBRANCH   1  10
BRANCH   5  17
ATOM     17  N   UNL     1      52.197 154.667  27.171  0.00  0.00    -0.319 N 
ATOM     18  H   UNL     1      51.445 155.266  26.959  0.00  0.00    +0.148 HD
BRANCH  17  19
ATOM     19  C   UNL     1      52.612 153.704  26.227  0.00  0.00    +0.066 C 
ATOM     20  C   UNL     1      53.477 154.116  25.204  0.00  0.00    +0.095 C 
ATOM     21  N   UNL     1      53.867 155.401  25.191  0.00  0.00    -0.243 NA
ATOM     22  C   UNL     1      54.707 155.867  24.223  0.00  0.00    +0.099 C 
ATOM     23  C   UNL     1      55.145 154.982  23.261  0.00  0.00    +0.021 C 
ATOM     24  C   UNL     1      54.738 153.657  23.282  0.00  0.00    +0.003 C 
ATOM     25  C   UNL     1      53.881 153.188  24.271  0.00  0.00    +0.022 C 
ATOM     26  C   UNL     1      53.441 151.898  24.353  0.00  0.00    +0.038 C 
ATOM     27  C   UNL     1      52.591 151.454  25.342  0.00  0.00    +0.135 C 
ATOM     28  C   UNL     1      52.183 152.397  26.287  0.00  0.00    +0.052 C 
BRANCH  27  29
ATOM     29  O   UNL     1      52.141 150.145  25.429  0.00  0.00    -0.505 OA
ATOM     30  H   UNL     1      52.415 149.512  24.795  0.00  0.00    +0.292 HD
ENDBRANCH  27  29
ENDBRANCH  17  19
ENDBRANCH   5  17
BRANCH   7  31
ATOM     31  C   UNL     1      52.042 160.109  30.482  0.00  0.00    -0.020 C 
ATOM     32  C   UNL     1      52.131 161.274  29.869  0.00  0.00    +0.077 C 
BRANCH  32  33
ATOM     33  C   UNL     1      52.637 162.452  30.556  0.00  0.00    +0.338 C 
ATOM     34  O   UNL     1      52.873 163.498  29.896  0.00  0.00    -0.245 OA
BRANCH  33  35
ATOM     35  O   UNL     1      52.880 162.495  31.913  0.00  0.00    -0.477 OA
ATOM     36  H   UNL     1      52.718 161.739  32.442  0.00  0.00    +0.295 HD
ENDBRANCH  33  35
ENDBRANCH  32  33
ENDBRANCH   7  31
BRANCH   9  37
ATOM     37  S   UNL     1      49.275 156.584  29.284  0.00  0.00    -0.151 S 
ATOM     38  H   UNL     1      48.759 155.382  29.656  0.00  0.00    +0.104 HD
BRANCH  37  39
ATOM     39  S   UNL     1      49.734 156.643  27.855  0.00  0.00    -0.123 S 
ATOM     40  H   UNL     1      50.229 157.881  27.589  0.00  0.00    +0.113 HD
ENDBRANCH  37  39
BRANCH  37  41
ATOM     41  S   UNL     1      48.022 157.694  29.400  0.00  0.00    -0.123 S 
ATOM     42  H   UNL     1      48.472 158.925  29.039  0.00  0.00    +0.113 HD
ENDBRANCH  37  41
ENDBRANCH   9  37
TORSDOF 10
