REMARK  Name = =
REMARK  3 active torsions:
REMARK  status: ('A' for Active; 'I' for Inactive)
REMARK    1  A    between atoms: C_2  and  N_7
REMARK    2  A    between atoms: N_7  and  C_8
REMARK    3  A    between atoms: C_8  and  O_10
REMARK                            x       y       z     vdW  Elec       q    Type
REMARK                         _______ _______ _______ _____ _____    ______ ____
ROOT
ATOM      1  N   UNL     1      49.333 158.352  30.713  0.00  0.00    -0.281 NA
ATOM      2  C   UNL     1      50.626 158.540  30.106  0.00  0.00    +0.146 C 
ATOM      3  C   UNL     1      50.502 159.745  29.175  0.00  0.00    +0.105 C 
ATOM      4  N   UNL     1      49.474 160.625  29.721  0.00  0.00    -0.294 NA
ATOM      5  C   UNL     1      49.607 160.674  31.167  0.00  0.00    +0.086 C 
ATOM      6  C   UNL     1      49.238 159.344  31.795  0.00  0.00    +0.087 C 
ATOM      7  H   UNL     1      48.595 158.506  30.026  0.00  0.00    +0.125 HD
ATOM      8  H   UNL     1      48.552 160.266  29.475  0.00  0.00    +0.123 HD
ENDROOT
BRANCH   2   9
ATOM      9  N   UNL     1      51.101 157.381  29.418  0.00  0.00    -0.287 N 
ATOM     10  H   UNL     1      50.532 156.579  29.378  0.00  0.00    +0.151 HD
BRANCH   9  11
ATOM     11  C   UNL     1      52.374 157.359  28.791  0.00  0.00    +0.227 C 
ATOM     12  S   UNL     1      52.606 156.619  27.358  0.00  0.00    +0.006 S 
BRANCH  11  13
ATOM     13  O   UNL     1      53.473 157.973  29.384  0.00  0.00    -0.490 OA
ATOM     14  H   UNL     1      53.378 158.409  30.208  0.00  0.00    +0.294 HD
ENDBRANCH  11  13
ENDBRANCH   9  11
ENDBRANCH   2   9
TORSDOF 3
