REMARK  Name = =
REMARK  3 active torsions:
REMARK  status: ('A' for Active; 'I' for Inactive)
REMARK    1  A    between atoms: C_1  and  C_18
REMARK    2  A    between atoms: C_1  and  N_23
REMARK    3  A    between atoms: C_3  and  N_30
REMARK                            x       y       z     vdW  Elec       q    Type
REMARK                         _______ _______ _______ _____ _____    ______ ____
ROOT
ATOM      1  C   UNL     1       5.381  -8.213  24.980  0.00  0.00    +0.186 C 
ATOM      2  O   UNL     1       5.771  -8.750  23.765  0.00  0.00    -0.322 OA
ATOM      3  C   UNL     1       4.802  -8.702  22.788  0.00  0.00    +0.208 C 
ATOM      4  C   UNL     1       3.619  -9.524  23.208  0.00  0.00    +0.188 C 
ATOM      5  O   UNL     1       4.115 -10.689  23.838  0.00  0.00    -0.325 OA
ATOM      6  C   UNL     1       3.101 -11.432  24.411  0.00  0.00    +0.264 C 
ATOM      7  O   UNL     1       2.410 -12.215  23.536  0.00  0.00    -0.321 OA
ATOM      8  C   UNL     1       1.084 -12.440  23.835  0.00  0.00    +0.209 C 
ATOM      9  C   UNL     1       0.767 -12.440  25.266  0.00  0.00    +0.183 C 
ATOM     10  O   UNL     1       0.102 -13.321  25.762  0.00  0.00    -0.293 OA
ATOM     11  C   UNL     1       1.270 -11.343  26.117  0.00  0.00    +0.102 C 
ATOM     12  C   UNL     1       2.306 -10.592  25.331  0.00  0.00    +0.179 C 
ATOM     13  O   UNL     1       1.879  -9.397  24.818  0.00  0.00    -0.350 OA
ATOM     14  C   UNL     1       2.996  -8.704  24.352  0.00  0.00    +0.151 C 
ATOM     15  C   UNL     1       4.027  -8.661  25.431  0.00  0.00    +0.084 C 
ENDROOT
BRANCH   1  18
ATOM     16  F   UNL     1       5.230  -7.685  27.778  0.00  0.00    -0.204 F 
ATOM     17  C   UNL     1       6.270  -8.407  27.333  0.00  0.00    +0.140 C 
ATOM     18  C   UNL     1       6.371  -8.677  25.991  0.00  0.00    +0.048 C 
ATOM     19  C   UNL     1       7.492  -9.436  25.622  0.00  0.00    +0.002 C 
ATOM     20  C   UNL     1       8.425  -9.885  26.503  0.00  0.00    -0.000 C 
ATOM     21  C   UNL     1       8.304  -9.606  27.832  0.00  0.00    +0.002 C 
ATOM     22  C   UNL     1       7.219  -8.863  28.239  0.00  0.00    +0.029 C 
ENDBRANCH   1  18
BRANCH   1  23
ATOM     23  N   UNL     1       5.491  -6.774  24.896  0.00  0.00    -0.206 N 
ATOM     24  C   UNL     1       6.527  -6.011  24.259  0.00  0.00    +0.234 C 
ATOM     25  O   UNL     1       7.410  -6.512  23.500  0.00  0.00    -0.274 OA
ATOM     26  C   UNL     1       6.422  -4.592  24.600  0.00  0.00    +0.095 C 
ATOM     27  C   UNL     1       5.320  -4.521  25.633  0.00  0.00    +0.095 C 
ATOM     28  C   UNL     1       4.599  -5.830  25.420  0.00  0.00    +0.234 C 
ATOM     29  O   UNL     1       3.389  -5.954  25.699  0.00  0.00    -0.274 OA
ENDBRANCH   1  23
BRANCH   3  30
ATOM     30  N   UNL     1       5.376  -9.108  21.538  0.00  0.00    -0.246 NA
ATOM     31  C   UNL     1       5.478  -7.911  20.711  0.00  0.00    +0.093 C 
ATOM     32  C   UNL     1       5.967  -8.241  19.317  0.00  0.00    +0.106 C 
ATOM     33  N   UNL     1       7.263  -8.874  19.427  0.00  0.00    -0.215 NA
ATOM     34  C   UNL     1       7.202 -10.019  20.285  0.00  0.00    +0.106 C 
ATOM     35  C   UNL     1       6.712  -9.639  21.685  0.00  0.00    +0.093 C 
ENDBRANCH   3  30
TORSDOF 3
