MODEL 1
REMARK VINA RESULT:    -9.198      0.000      0.000
REMARK INTER + INTRA:         -13.209
REMARK INTER:                 -12.424
REMARK INTRA:                  -0.785
REMARK UNBOUND:                -0.785
REMARK  Name = =
REMARK  7 active torsions:
REMARK  status: ('A' for Active; 'I' for Inactive)
REMARK    1  A    between atoms: C_1  and  C_34
REMARK    2  A    between atoms: C_2  and  N_23
REMARK    3  A    between atoms: C_3  and  C_42
REMARK    4  A    between atoms: C_6  and  C_7
REMARK    5  A    between atoms: C_35  and  P_38
REMARK    6  A    between atoms: P_38  and  O_40
REMARK    7  A    between atoms: P_38  and  O_41
REMARK                            x       y       z     vdW  Elec       q    Type
REMARK                         _______ _______ _______ _____ _____    ______ ____
ROOT
ATOM      1  C   UNL     1       2.509  -3.698  27.708  0.00  0.00    -0.009 C 
ATOM      2  C   UNL     1       3.206  -4.180  26.587  0.00  0.00    +0.071 C 
ATOM      3  C   UNL     1       3.432  -5.532  26.314  0.00  0.00    +0.096 C 
ATOM      4  N   UNL     1       2.960  -6.424  27.155  0.00  0.00    -0.243 NA
ATOM      5  C   UNL     1       2.273  -6.034  28.251  0.00  0.00    +0.094 C 
ATOM      6  C   UNL     1       2.022  -4.689  28.561  0.00  0.00    -0.006 C 
ENDROOT
BRANCH   6   7
ATOM      7  C   UNL     1       1.218  -4.364  29.744  0.00  0.00    +0.024 C 
ATOM      8  C   UNL     1      -0.232  -4.889  29.502  0.00  0.00    +0.005 C 
ATOM      9  C   UNL     1      -1.168  -3.725  29.893  0.00  0.00    +0.008 C 
ATOM     10  C   UNL     1      -2.488  -3.818  29.237  0.00  0.00    +0.065 C 
ATOM     11  C   UNL     1      -3.494  -4.408  30.140  0.00  0.00    +0.151 C 
ATOM     12  O   UNL     1      -3.749  -5.596  30.001  0.00  0.00    -0.296 OA
ATOM     13  C   UNL     1      -4.195  -3.645  31.187  0.00  0.00    +0.065 C 
ATOM     14  C   UNL     1      -3.780  -3.969  32.590  0.00  0.00    +0.012 C 
ATOM     15  C   UNL     1      -4.139  -5.378  33.009  0.00  0.00    +0.048 C 
ATOM     16  C   UNL     1      -2.913  -6.171  33.410  0.00  0.00    +0.208 C 
ATOM     17  O   UNL     1      -2.369  -6.936  32.390  0.00  0.00    -0.448 OA
ATOM     18  C   UNL     1      -1.063  -7.306  32.196  0.00  0.00    +0.317 C 
ATOM     19  O   UNL     1      -0.805  -8.506  31.854  0.00  0.00    -0.250 OA
ATOM     20  C   UNL     1       0.018  -6.281  32.393  0.00  0.00    +0.110 C 
ATOM     21  C   UNL     1       1.054  -6.412  31.284  0.00  0.00    +0.012 C 
ATOM     22  C   UNL     1       1.708  -5.130  31.003  0.00  0.00    +0.005 C 
ENDBRANCH   6   7
BRANCH   2  23
ATOM     23  N   UNL     1       3.531  -3.328  25.494  0.00  0.00    -0.241 N 
ATOM     24  C   UNL     1       2.961  -2.971  24.383  0.00  0.00    +0.174 C 
ATOM     25  N   UNL     1       3.701  -2.038  23.726  0.00  0.00    -0.209 NA
ATOM     26  C   UNL     1       4.787  -1.824  24.498  0.00  0.00    +0.164 A 
ATOM     27  C   UNL     1       4.708  -2.622  25.616  0.00  0.00    +0.148 A 
ATOM     28  C   UNL     1       5.708  -2.593  26.621  0.00  0.00    +0.278 A 
ATOM     29  O   UNL     1       5.575  -3.342  27.620  0.00  0.00    -0.266 OA
ATOM     30  N   UNL     1       6.764  -1.774  26.493  0.00  0.00    -0.273 N 
ATOM     31  C   UNL     1       6.827  -0.988  25.374  0.00  0.00    +0.328 A 
ATOM     32  O   UNL     1       7.826  -0.205  25.248  0.00  0.00    -0.247 OA
ATOM     33  N   UNL     1       5.890  -1.001  24.409  0.00  0.00    -0.291 N 
ATOM     34  H   UNL     1       7.469  -1.739  27.180  0.00  0.00    +0.173 HD
ATOM     35  H   UNL     1       5.993  -0.412  23.627  0.00  0.00    +0.172 HD
ENDBRANCH   2  23
BRANCH   1  36
ATOM     36  C   UNL     1       2.259  -2.294  27.856  0.00  0.00    +0.035 C 
ATOM     37  C   UNL     1       1.478  -1.415  26.956  0.00  0.00    +0.108 C 
ATOM     38  C   UNL     1       1.271  -0.402  28.151  0.00  0.00    +0.013 C 
ATOM     39  C   UNL     1       1.548  -1.675  28.990  0.00  0.00    +0.006 C 
BRANCH  37  40
ATOM     40  P   UNL     1      -0.181  -1.902  26.454  0.00  0.00    +0.337 P 
ATOM     41  O   UNL     1      -0.426  -3.391  26.508  0.00  0.00    -0.258 OA
BRANCH  40  42
ATOM     42  O   UNL     1      -1.402  -1.016  27.230  0.00  0.00    -0.324 OA
ATOM     43  H   UNL     1      -1.632  -1.447  28.068  0.00  0.00    +0.220 HD
ENDBRANCH  40  42
BRANCH  40  44
ATOM     44  O   UNL     1      -0.336  -1.526  24.805  0.00  0.00    -0.324 OA
ATOM     45  H   UNL     1      -1.149  -1.015  24.666  0.00  0.00    +0.220 HD
ENDBRANCH  40  44
ENDBRANCH  37  40
ENDBRANCH   1  36
BRANCH   3  46
ATOM     46  C   UNL     1       4.210  -5.914  25.113  0.00  0.00    +0.033 C 
ATOM     47  C   UNL     1       5.439  -6.331  25.285  0.00  0.00    +0.070 C 
ATOM     48 CL   UNL     1       6.465  -6.808  23.943  0.00  0.00    -0.081 Cl
ENDBRANCH   3  46
TORSDOF 7
ENDMDL
