REMARK  Name = =
REMARK  7 active torsions:
REMARK  status: ('A' for Active; 'I' for Inactive)
REMARK    1  A    between atoms: C_1  and  C_34
REMARK    2  A    between atoms: C_2  and  N_23
REMARK    3  A    between atoms: C_3  and  C_42
REMARK    4  A    between atoms: C_6  and  C_7
REMARK    5  A    between atoms: C_35  and  P_38
REMARK    6  A    between atoms: P_38  and  O_40
REMARK    7  A    between atoms: P_38  and  O_41
REMARK                            x       y       z     vdW  Elec       q    Type
REMARK                         _______ _______ _______ _____ _____    ______ ____
ROOT
ATOM      1  C   UNL     1       2.861  -6.598  26.050  0.00  0.00    -0.009 C 
ATOM      2  C   UNL     1       2.741  -5.388  26.755  0.00  0.00    +0.071 C 
ATOM      3  C   UNL     1       2.436  -4.156  26.170  0.00  0.00    +0.096 C 
ATOM      4  N   UNL     1       2.242  -4.115  24.872  0.00  0.00    -0.243 NA
ATOM      5  C   UNL     1       2.334  -5.241  24.130  0.00  0.00    +0.094 C 
ATOM      6  C   UNL     1       2.635  -6.497  24.677  0.00  0.00    -0.006 C 
ENDROOT
BRANCH   6   7
ATOM      7  C   UNL     1       2.658  -7.673  23.801  0.00  0.00    +0.024 C 
ATOM      8  C   UNL     1       3.862  -8.570  24.227  0.00  0.00    +0.005 C 
ATOM      9  C   UNL     1       4.594  -8.935  22.918  0.00  0.00    +0.008 C 
ATOM     10  C   UNL     1       6.009  -9.293  23.144  0.00  0.00    +0.065 C 
ATOM     11  C   UNL     1       6.190 -10.756  23.189  0.00  0.00    +0.151 C 
ATOM     12  O   UNL     1       6.261 -11.282  24.291  0.00  0.00    -0.296 OA
ATOM     13  C   UNL     1       6.287 -11.602  21.987  0.00  0.00    +0.065 C 
ATOM     14  C   UNL     1       5.093 -12.469  21.726  0.00  0.00    +0.012 C 
ATOM     15  C   UNL     1       4.888 -13.536  22.780  0.00  0.00    +0.048 C 
ATOM     16  C   UNL     1       3.536 -13.407  23.449  0.00  0.00    +0.208 C 
ATOM     17  O   UNL     1       3.549 -12.674  24.626  0.00  0.00    -0.448 OA
ATOM     18  C   UNL     1       2.550 -11.912  25.175  0.00  0.00    +0.317 C 
ATOM     19  O   UNL     1       2.325 -11.997  26.426  0.00  0.00    -0.250 OA
ATOM     20  C   UNL     1       1.755 -11.003  24.280  0.00  0.00    +0.110 C 
ATOM     21  C   UNL     1       1.540  -9.664  24.974  0.00  0.00    +0.012 C 
ATOM     22  C   UNL     1       1.407  -8.571  24.007  0.00  0.00    +0.005 C 
ENDBRANCH   6   7
BRANCH   2  23
ATOM     23  N   UNL     1       2.676  -5.363  28.177  0.00  0.00    -0.241 N 
ATOM     24  C   UNL     1       3.508  -5.143  29.149  0.00  0.00    +0.174 C 
ATOM     25  N   UNL     1       2.878  -5.167  30.354  0.00  0.00    -0.209 NA
ATOM     26  C   UNL     1       1.580  -5.419  30.082  0.00  0.00    +0.164 A 
ATOM     27  C   UNL     1       1.423  -5.548  28.721  0.00  0.00    +0.148 A 
ATOM     28  C   UNL     1       0.154  -5.797  28.140  0.00  0.00    +0.278 A 
ATOM     29  O   UNL     1       0.076  -5.899  26.891  0.00  0.00    -0.266 OA
ATOM     30  N   UNL     1      -0.931  -5.914  28.923  0.00  0.00    -0.273 N 
ATOM     31  C   UNL     1      -0.756  -5.784  30.275  0.00  0.00    +0.328 A 
ATOM     32  O   UNL     1      -1.783  -5.890  31.024  0.00  0.00    -0.247 OA
ATOM     33  N   UNL     1       0.439  -5.548  30.845  0.00  0.00    -0.291 N 
ATOM     34  H   UNL     1      -1.821  -6.087  28.539  0.00  0.00    +0.173 HD
ATOM     35  H   UNL     1       0.500  -5.466  31.824  0.00  0.00    +0.172 HD
ENDBRANCH   2  23
BRANCH   1  36
ATOM     36  C   UNL     1       3.097  -7.825  26.754  0.00  0.00    +0.035 C 
ATOM     37  C   UNL     1       4.333  -8.639  26.761  0.00  0.00    +0.108 C 
ATOM     38  C   UNL     1       3.880  -9.287  28.129  0.00  0.00    +0.013 C 
ATOM     39  C   UNL     1       3.048  -7.983  28.220  0.00  0.00    +0.006 C 
BRANCH  37  40
ATOM     40  P   UNL     1       5.916  -7.854  27.109  0.00  0.00    +0.337 P 
ATOM     41  O   UNL     1       6.927  -7.993  25.996  0.00  0.00    -0.258 OA
BRANCH  40  42
ATOM     42  O   UNL     1       5.764  -6.253  27.651  0.00  0.00    -0.324 OA
ATOM     43  H   UNL     1       5.106  -6.214  28.363  0.00  0.00    +0.220 HD
ENDBRANCH  40  42
BRANCH  40  44
ATOM     44  O   UNL     1       6.620  -8.698  28.404  0.00  0.00    -0.324 OA
ATOM     45  H   UNL     1       6.030  -8.660  29.173  0.00  0.00    +0.220 HD
ENDBRANCH  40  44
ENDBRANCH  37  40
ENDBRANCH   1  36
BRANCH   3  46
ATOM     46  C   UNL     1       2.367  -2.943  27.017  0.00  0.00    +0.033 C 
ATOM     47  C   UNL     1       1.850  -1.859  26.495  0.00  0.00    +0.070 C 
ATOM     48 CL   UNL     1       1.716  -0.357  27.393  0.00  0.00    -0.081 Cl
ENDBRANCH   3  46
TORSDOF 7
