REMARK  Name = =
REMARK  3 active torsions:
REMARK  status: ('A' for Active; 'I' for Inactive)
REMARK    1  A    between atoms: C_1  and  C_8
REMARK    2  A    between atoms: C_2  and  O_11
REMARK    3  A    between atoms: C_3  and  O_10
REMARK                            x       y       z     vdW  Elec       q    Type
REMARK                         _______ _______ _______ _____ _____    ______ ____
ROOT
ATOM      1  C   UNL     1      -8.325  -0.225  31.343  0.00  0.00    +0.090 C 
ATOM      2  C   UNL     1      -7.276  -1.068  31.627  0.00  0.00    +0.172 C 
ATOM      3  C   UNL     1      -5.965  -0.578  31.807  0.00  0.00    +0.168 C 
ATOM      4  C   UNL     1      -5.687   0.757  31.706  0.00  0.00    +0.040 C 
ATOM      5  C   UNL     1      -6.728   1.608  31.422  0.00  0.00    +0.003 C 
ATOM      6  C   UNL     1      -8.003   1.142  31.246  0.00  0.00    +0.008 C 
ENDROOT
BRANCH   1   8
ATOM      7  N   UNL     1     -10.557   0.188  30.345  0.00  0.00    -0.325 N 
ATOM      8  C   UNL     1      -9.702  -0.646  31.143  0.00  0.00    +0.246 C 
ATOM      9  O   UNL     1     -10.254  -1.664  31.585  0.00  0.00    -0.270 OA
ATOM     10  H   UNL     1     -10.206   1.019  29.951  0.00  0.00    +0.145 HD
ATOM     11  H   UNL     1     -11.494  -0.071  30.192  0.00  0.00    +0.145 HD
ENDBRANCH   1   8
BRANCH   3  12
ATOM     12  O   UNL     1      -4.956  -1.510  32.094  0.00  0.00    -0.503 OA
ATOM     13  H   UNL     1      -5.165  -2.421  32.160  0.00  0.00    +0.292 HD
ENDBRANCH   3  12
BRANCH   2  14
ATOM     14  O   UNL     1      -7.484  -2.428  31.743  0.00  0.00    -0.503 OA
ATOM     15  H   UNL     1      -8.344  -2.782  31.629  0.00  0.00    +0.292 HD
ENDBRANCH   2  14
TORSDOF 3
