REMARK  Name = =
REMARK  4 active torsions:
REMARK  status: ('A' for Active; 'I' for Inactive)
REMARK    1  A    between atoms: C_1  and  C_8
REMARK    2  A    between atoms: C_2  and  O_11
REMARK    3  A    between atoms: C_3  and  O_10
REMARK    4  A    between atoms: O_11  and  S_12
REMARK                            x       y       z     vdW  Elec       q    Type
REMARK                         _______ _______ _______ _____ _____    ______ ____
ROOT
ATOM      1  C   UNL     1      -7.969  -0.950  32.065  0.00  0.00    +0.091 C 
ATOM      2  C   UNL     1      -6.655  -0.674  32.379  0.00  0.00    +0.190 C 
ATOM      3  C   UNL     1      -6.106   0.535  32.006  0.00  0.00    +0.169 C 
ATOM      4  C   UNL     1      -6.811   1.503  31.321  0.00  0.00    +0.040 C 
ATOM      5  C   UNL     1      -8.127   1.218  31.011  0.00  0.00    +0.003 C 
ATOM      6  C   UNL     1      -8.681   0.012  31.382  0.00  0.00    +0.008 C 
ENDROOT
BRANCH   1   8
ATOM      7  N   UNL     1      -9.914  -2.502  31.970  0.00  0.00    -0.325 N 
ATOM      8  C   UNL     1      -8.612  -2.211  32.432  0.00  0.00    +0.246 C 
ATOM      9  O   UNL     1      -8.034  -3.059  33.155  0.00  0.00    -0.270 OA
ATOM     10  H   UNL     1     -10.391  -1.855  31.401  0.00  0.00    +0.145 HD
ATOM     11  H   UNL     1     -10.345  -3.352  32.216  0.00  0.00    +0.145 HD
ENDBRANCH   1   8
BRANCH   3  12
ATOM     12  O   UNL     1      -4.772   0.859  32.304  0.00  0.00    -0.503 OA
ATOM     13  H   UNL     1      -4.234   0.248  32.768  0.00  0.00    +0.292 HD
ENDBRANCH   3  12
BRANCH   2  14
ATOM     14  O   UNL     1      -5.932  -1.610  33.054  0.00  0.00    -0.444 OA
BRANCH  14  15
ATOM     15  S   UNL     1      -5.035  -2.830  32.453  0.00  0.00    -0.081 S 
ATOM     16  C   UNL     1      -4.981  -4.456  33.180  0.00  0.00    +0.090 C 
ATOM     17  C   UNL     1      -3.911  -5.283  32.523  0.00  0.00    +0.082 C 
ATOM     18  N   UNL     1      -3.178  -4.579  31.515  0.00  0.00    -0.296 NA
ATOM     19  C   UNL     1      -3.981  -4.197  30.374  0.00  0.00    +0.082 C 
ATOM     20  C   UNL     1      -5.094  -3.269  30.719  0.00  0.00    +0.090 C 
ATOM     21  H   UNL     1      -3.982  -2.051  32.819  0.00  0.00    +0.123 HD
ATOM     22  H   UNL     1      -2.420  -5.179  31.189  0.00  0.00    +0.123 HD
ENDBRANCH  14  15
ENDBRANCH   2  14
TORSDOF 4
