REMARK  Name = =
REMARK  5 active torsions:
REMARK  status: ('A' for Active; 'I' for Inactive)
REMARK    1  A    between atoms: C_1  and  C_8
REMARK    2  A    between atoms: C_2  and  O_11
REMARK    3  A    between atoms: C_3  and  O_10
REMARK    4  A    between atoms: O_11  and  S_12
REMARK    5  A    between atoms: C_17  and  N_18
REMARK                            x       y       z     vdW  Elec       q    Type
REMARK                         _______ _______ _______ _____ _____    ______ ____
ROOT
ATOM      1  C   UNL     1     -12.008  -1.793  31.507  0.00  0.00    +0.091 C 
ATOM      2  C   UNL     1     -13.279  -1.421  31.114  0.00  0.00    +0.191 C 
ATOM      3  C   UNL     1     -14.346  -1.450  32.008  0.00  0.00    +0.169 C 
ATOM      4  C   UNL     1     -14.157  -1.855  33.314  0.00  0.00    +0.040 C 
ATOM      5  C   UNL     1     -12.889  -2.228  33.710  0.00  0.00    +0.003 C 
ATOM      6  C   UNL     1     -11.831  -2.197  32.815  0.00  0.00    +0.008 C 
ENDROOT
BRANCH   1   8
ATOM      7  N   UNL     1     -10.866  -2.597  29.433  0.00  0.00    -0.325 N 
ATOM      8  C   UNL     1     -10.876  -1.769  30.570  0.00  0.00    +0.246 C 
ATOM      9  O   UNL     1      -9.895  -1.010  30.762  0.00  0.00    -0.270 OA
ATOM     10  H   UNL     1     -10.102  -2.572  28.813  0.00  0.00    +0.145 HD
ATOM     11  H   UNL     1     -11.623  -3.202  29.258  0.00  0.00    +0.145 HD
ENDBRANCH   1   8
BRANCH   3  12
ATOM     12  O   UNL     1     -15.626  -1.068  31.583  0.00  0.00    -0.503 OA
ATOM     13  H   UNL     1     -15.763  -0.792  30.698  0.00  0.00    +0.292 HD
ENDBRANCH   3  12
BRANCH   2  14
ATOM     14  O   UNL     1     -13.454  -1.017  29.803  0.00  0.00    -0.439 OA
BRANCH  14  15
ATOM     15  S   UNL     1     -13.055   0.721  29.471  0.00  0.00    -0.048 S 
ATOM     16  C   UNL     1     -12.435   1.125  27.958  0.00  0.00    +0.062 C 
ATOM     17  C   UNL     1     -12.961   2.371  27.313  0.00  0.00    +0.066 C 
ATOM     18  N   UNL     1     -14.057   2.985  27.963  0.00  0.00    -0.329 N 
ATOM     19  C   UNL     1     -13.998   3.149  29.352  0.00  0.00    +0.116 C 
ATOM     20  C   UNL     1     -14.305   1.774  29.966  0.00  0.00    +0.137 C 
ATOM     21  H   UNL     1     -11.967   0.911  30.264  0.00  0.00    +0.128 HD
ATOM     22  H   UNL     1     -14.841   3.289  27.452  0.00  0.00    +0.147 HD
BRANCH  20  23
ATOM     23  N   UNL     1     -14.539   1.865  31.370  0.00  0.00    -0.311 NA
ATOM     24  H   UNL     1     -14.739   0.937  31.742  0.00  0.00    +0.120 HD
ATOM     25  H   UNL     1     -15.335   2.479  31.543  0.00  0.00    +0.120 HD
ENDBRANCH  20  23
ENDBRANCH  14  15
ENDBRANCH   2  14
TORSDOF 5
