REMARK  Name = =
REMARK  6 active torsions:
REMARK  status: ('A' for Active; 'I' for Inactive)
REMARK    1  A    between atoms: C_1  and  C_14
REMARK    2  A    between atoms: C_2  and  O_17
REMARK    3  A    between atoms: C_3  and  O_16
REMARK    4  A    between atoms: C_5  and  C_7
REMARK    5  A    between atoms: O_17  and  S_18
REMARK    6  A    between atoms: C_23  and  N_24
REMARK                            x       y       z     vdW  Elec       q    Type
REMARK                         _______ _______ _______ _____ _____    ______ ____
ROOT
ATOM      1  C   UNL     1     -13.589  -1.116  29.817  0.00  0.00    +0.091 C 
ATOM      2  C   UNL     1     -14.578  -0.882  28.895  0.00  0.00    +0.190 C 
ATOM      3  C   UNL     1     -15.792  -0.374  29.264  0.00  0.00    +0.169 C 
ATOM      4  C   UNL     1     -16.025  -0.094  30.591  0.00  0.00    +0.036 C 
ATOM      5  C   UNL     1     -15.043  -0.319  31.559  0.00  0.00    -0.019 C 
ATOM      6  C   UNL     1     -13.847  -0.828  31.137  0.00  0.00    +0.004 C 
ENDROOT
BRANCH   5   7
ATOM      7  C   UNL     1     -15.364   0.006  32.974  0.00  0.00    +0.022 C 
ATOM      8  C   UNL     1     -16.589  -0.746  33.390  0.00  0.00    +0.004 C 
ATOM      9  C   UNL     1     -17.409   0.028  34.399  0.00  0.00    +0.000 C 
ATOM     10  C   UNL     1     -17.870   1.280  33.677  0.00  0.00    +0.000 C 
ATOM     11  C   UNL     1     -16.722   2.111  33.254  0.00  0.00    +0.000 C 
ATOM     12  C   UNL     1     -15.399   1.464  33.249  0.00  0.00    +0.004 C 
ENDBRANCH   5   7
BRANCH   1  14
ATOM     13  N   UNL     1     -11.095  -0.906  29.570  0.00  0.00    -0.325 N 
ATOM     14  C   UNL     1     -12.286  -1.653  29.474  0.00  0.00    +0.246 C 
ATOM     15  O   UNL     1     -12.190  -2.845  29.068  0.00  0.00    -0.270 OA
ATOM     16  H   UNL     1     -11.123   0.027  29.882  0.00  0.00    +0.145 HD
ATOM     17  H   UNL     1     -10.235  -1.317  29.325  0.00  0.00    +0.145 HD
ENDBRANCH   1  14
BRANCH   3  18
ATOM     18  O   UNL     1     -16.760  -0.152  28.305  0.00  0.00    -0.503 OA
ATOM     19  H   UNL     1     -16.583  -0.349  27.406  0.00  0.00    +0.292 HD
ENDBRANCH   3  18
BRANCH   2  20
ATOM     20  O   UNL     1     -14.350  -1.161  27.559  0.00  0.00    -0.443 OA
BRANCH  20  21
ATOM     21  S   UNL     1     -13.504  -0.040  26.568  0.00  0.00    -0.068 S 
ATOM     22  C   UNL     1     -12.826  -0.814  25.084  0.00  0.00    +0.091 C 
ATOM     23  C   UNL     1     -12.322   0.254  24.146  0.00  0.00    +0.082 C 
ATOM     24  N   UNL     1     -12.441   1.580  24.717  0.00  0.00    -0.295 NA
ATOM     25  C   UNL     1     -13.863   1.906  24.717  0.00  0.00    +0.097 C 
ATOM     26  C   UNL     1     -14.525   1.258  25.912  0.00  0.00    +0.129 C 
ATOM     27  H   UNL     1     -12.553   0.442  27.413  0.00  0.00    +0.124 HD
ATOM     28  H   UNL     1     -11.925   2.254  24.152  0.00  0.00    +0.123 HD
BRANCH  26  29
ATOM     29  N   UNL     1     -15.791   0.734  25.509  0.00  0.00    -0.312 NA
ATOM     30  H   UNL     1     -16.367   1.488  25.135  0.00  0.00    +0.120 HD
ATOM     31  H   UNL     1     -16.258   0.317  26.314  0.00  0.00    +0.120 HD
ENDBRANCH  26  29
ENDBRANCH  20  21
ENDBRANCH   2  20
TORSDOF 6
