REMARK  Name = =
REMARK  6 active torsions:
REMARK  status: ('A' for Active; 'I' for Inactive)
REMARK    1  A    between atoms: C_1  and  C_14
REMARK    2  A    between atoms: C_2  and  O_23
REMARK    3  A    between atoms: C_3  and  O_22
REMARK    4  A    between atoms: C_5  and  C_16
REMARK    5  A    between atoms: O_23  and  S_24
REMARK    6  A    between atoms: C_29  and  N_30
REMARK                            x       y       z     vdW  Elec       q    Type
REMARK                         _______ _______ _______ _____ _____    ______ ____
ROOT
ATOM      1  C   UNL     1     -14.146   0.353  28.838  0.00  0.00    +0.092 C 
ATOM      2  C   UNL     1     -15.301  -0.190  28.361  0.00  0.00    +0.190 C 
ATOM      3  C   UNL     1     -16.234   0.571  27.629  0.00  0.00    +0.169 C 
ATOM      4  C   UNL     1     -15.963   1.899  27.388  0.00  0.00    +0.036 C 
ATOM      5  C   UNL     1     -14.804   2.492  27.850  0.00  0.00    -0.019 C 
ATOM      6  C   UNL     1     -13.914   1.717  28.565  0.00  0.00    +0.004 C 
ENDROOT
BRANCH   1  14
ATOM      7  N   UNL     1     -12.358  -1.936  32.877  0.00  0.00    -0.191 NA
ATOM      8  C   UNL     1     -12.257  -1.487  31.614  0.00  0.00    +0.226 C 
ATOM      9  N   UNL     1     -11.107  -1.705  30.968  0.00  0.00    -0.191 NA
ATOM     10  C   UNL     1     -10.065  -2.353  31.541  0.00  0.00    +0.203 C 
ATOM     11  N   UNL     1     -10.201  -2.795  32.821  0.00  0.00    -0.202 NA
ATOM     12  C   UNL     1     -11.345  -2.587  33.488  0.00  0.00    +0.203 C 
ATOM     13  N   UNL     1     -13.353  -0.795  30.984  0.00  0.00    -0.250 N 
ATOM     14  C   UNL     1     -13.199  -0.347  29.670  0.00  0.00    +0.255 C 
ATOM     15  O   UNL     1     -12.051  -0.600  29.122  0.00  0.00    -0.270 OA
ATOM     16  H   UNL     1     -14.195  -0.641  31.471  0.00  0.00    +0.158 HD
ENDBRANCH   1  14
BRANCH   5  17
ATOM     17  C   UNL     1     -14.538   3.920  27.578  0.00  0.00    +0.022 C 
ATOM     18  C   UNL     1     -15.246   4.748  28.623  0.00  0.00    +0.004 C 
ATOM     19  C   UNL     1     -15.273   6.208  28.314  0.00  0.00    +0.000 C 
ATOM     20  C   UNL     1     -15.611   6.531  26.893  0.00  0.00    +0.000 C 
ATOM     21  C   UNL     1     -14.660   5.767  25.997  0.00  0.00    +0.000 C 
ATOM     22  C   UNL     1     -14.968   4.297  26.176  0.00  0.00    +0.004 C 
ENDBRANCH   5  17
BRANCH   3  23
ATOM     23  O   UNL     1     -17.375  -0.073  27.192  0.00  0.00    -0.503 OA
ATOM     24  H   UNL     1     -17.505  -0.980  27.387  0.00  0.00    +0.292 HD
ENDBRANCH   3  23
BRANCH   2  25
ATOM     25  O   UNL     1     -15.616  -1.497  28.555  0.00  0.00    -0.443 OA
BRANCH  25  26
ATOM     26  S   UNL     1     -15.239  -2.702  27.412  0.00  0.00    -0.068 S 
ATOM     27  C   UNL     1     -14.305  -2.140  26.020  0.00  0.00    +0.091 C 
ATOM     28  C   UNL     1     -14.558  -3.050  24.839  0.00  0.00    +0.082 C 
ATOM     29  N   UNL     1     -14.695  -4.395  25.365  0.00  0.00    -0.295 NA
ATOM     30  C   UNL     1     -16.110  -4.558  25.665  0.00  0.00    +0.097 C 
ATOM     31  C   UNL     1     -16.571  -3.624  26.739  0.00  0.00    +0.129 C 
ATOM     32  H   UNL     1     -14.506  -3.512  28.222  0.00  0.00    +0.124 HD
ATOM     33  H   UNL     1     -14.137  -4.504  26.212  0.00  0.00    +0.123 HD
BRANCH  31  34
ATOM     34  N   UNL     1     -17.243  -4.407  27.755  0.00  0.00    -0.312 NA
ATOM     35  H   UNL     1     -18.010  -4.929  27.330  0.00  0.00    +0.120 HD
ATOM     36  H   UNL     1     -17.612  -3.785  28.474  0.00  0.00    +0.120 HD
ENDBRANCH  31  34
ENDBRANCH  25  26
ENDBRANCH   2  25
TORSDOF 6
