REMARK  Name = =
REMARK  8 active torsions:
REMARK  status: ('A' for Active; 'I' for Inactive)
REMARK    1  A    between atoms: C_1  and  C_14
REMARK    2  A    between atoms: C_2  and  O_26
REMARK    3  A    between atoms: C_3  and  O_25
REMARK    4  A    between atoms: C_5  and  C_19
REMARK    5  A    between atoms: C_10  and  P_16
REMARK    6  A    between atoms: P_16  and  O_18
REMARK    7  A    between atoms: O_26  and  S_27
REMARK    8  A    between atoms: C_32  and  N_33
REMARK                            x       y       z     vdW  Elec       q    Type
REMARK                         _______ _______ _______ _____ _____    ______ ____
ROOT
ATOM      1  C   UNL     1     -12.828   1.504  25.993  0.00  0.00    +0.092 C 
ATOM      2  C   UNL     1     -12.652   1.824  27.311  0.00  0.00    +0.190 C 
ATOM      3  C   UNL     1     -12.928   3.084  27.853  0.00  0.00    +0.169 C 
ATOM      4  C   UNL     1     -13.399   4.040  27.010  0.00  0.00    +0.036 C 
ATOM      5  C   UNL     1     -13.604   3.803  25.666  0.00  0.00    -0.019 C 
ATOM      6  C   UNL     1     -13.315   2.550  25.198  0.00  0.00    +0.004 C 
ENDROOT
BRANCH   1  14
ATOM      7  N   UNL     1     -13.048  -3.403  25.631  0.00  0.00    -0.191 NA
ATOM      8  C   UNL     1     -12.717  -2.205  25.157  0.00  0.00    +0.226 C 
ATOM      9  N   UNL     1     -12.117  -2.161  23.954  0.00  0.00    -0.190 NA
ATOM     10  C   UNL     1     -11.859  -3.274  23.257  0.00  0.00    +0.217 C 
ATOM     11  N   UNL     1     -12.206  -4.459  23.765  0.00  0.00    -0.200 NA
ATOM     12  C   UNL     1     -12.809  -4.561  24.964  0.00  0.00    +0.203 C 
ATOM     13  N   UNL     1     -13.014  -1.045  25.944  0.00  0.00    -0.250 N 
ATOM     14  C   UNL     1     -12.638   0.201  25.386  0.00  0.00    +0.255 C 
ATOM     15  O   UNL     1     -12.066   0.207  24.226  0.00  0.00    -0.270 OA
ATOM     16  H   UNL     1     -13.454  -1.110  26.822  0.00  0.00    +0.158 HD
BRANCH  10  17
ATOM     17  P   UNL     1     -11.070  -3.181  21.679  0.00  0.00    +0.256 P 
ATOM     18  O   UNL     1     -11.131  -1.732  21.202  0.00  0.00    -0.286 OA
ATOM     19  H   UNL     1     -10.056  -3.737  22.432  0.00  0.00    +0.136 HD
BRANCH  17  20
ATOM     20  O   UNL     1     -11.890  -4.126  20.525  0.00  0.00    -0.341 OA
ATOM     21  H   UNL     1     -12.567  -3.587  20.087  0.00  0.00    +0.218 HD
ENDBRANCH  17  20
ENDBRANCH  10  17
ENDBRANCH   1  14
BRANCH   5  22
ATOM     22  C   UNL     1     -14.114   4.896  24.834  0.00  0.00    +0.022 C 
ATOM     23  C   UNL     1     -14.905   4.414  23.642  0.00  0.00    +0.004 C 
ATOM     24  C   UNL     1     -15.346   5.613  22.860  0.00  0.00    +0.000 C 
ATOM     25  C   UNL     1     -14.772   6.907  23.377  0.00  0.00    +0.000 C 
ATOM     26  C   UNL     1     -15.047   7.145  24.828  0.00  0.00    +0.000 C 
ATOM     27  C   UNL     1     -15.015   5.843  25.608  0.00  0.00    +0.004 C 
ENDBRANCH   5  22
BRANCH   3  28
ATOM     28  O   UNL     1     -12.728   3.343  29.205  0.00  0.00    -0.503 OA
ATOM     29  H   UNL     1     -12.402   2.669  29.768  0.00  0.00    +0.292 HD
ENDBRANCH   3  28
BRANCH   2  30
ATOM     30  O   UNL     1     -12.165   0.902  28.214  0.00  0.00    -0.443 OA
BRANCH  30  31
ATOM     31  S   UNL     1     -10.504   0.500  28.224  0.00  0.00    -0.068 S 
ATOM     32  C   UNL     1     -10.076  -1.169  28.317  0.00  0.00    +0.091 C 
ATOM     33  C   UNL     1      -9.987  -1.572  29.751  0.00  0.00    +0.082 C 
ATOM     34  N   UNL     1      -9.078  -0.789  30.527  0.00  0.00    -0.295 NA
ATOM     35  C   UNL     1      -9.533   0.570  30.661  0.00  0.00    +0.097 C 
ATOM     36  C   UNL     1      -9.440   1.314  29.366  0.00  0.00    +0.129 C 
ATOM     37  H   UNL     1     -10.289   0.985  26.972  0.00  0.00    +0.124 HD
ATOM     38  H   UNL     1      -8.166  -0.790  30.070  0.00  0.00    +0.123 HD
BRANCH  36  39
ATOM     39  N   UNL     1      -8.057   1.235  28.921  0.00  0.00    -0.312 NA
ATOM     40  H   UNL     1      -7.955   1.733  28.037  0.00  0.00    +0.120 HD
ATOM     41  H   UNL     1      -7.797   0.257  28.792  0.00  0.00    +0.120 HD
ENDBRANCH  36  39
ENDBRANCH  30  31
ENDBRANCH   2  30
TORSDOF 8
