REMARK  Name = =
REMARK  0 active torsions:
REMARK  status: ('A' for Active; 'I' for Inactive)
REMARK                            x       y       z     vdW  Elec       q    Type
REMARK                         _______ _______ _______ _____ _____    ______ ____
ROOT
ATOM      1  N   UNL     1      52.404 159.155  29.791  0.00  0.00    -0.278 N 
ATOM      2  C   UNL     1      51.104 159.046  30.366  0.00  0.00    +0.083 C 
ATOM      3  C   UNL     1      50.305 157.922  30.402  0.00  0.00    +0.155 C 
ATOM      4  N   UNL     1      49.114 157.977  30.983  0.00  0.00    -0.227 NA
ATOM      5  C   UNL     1      48.639 159.120  31.555  0.00  0.00    +0.100 C 
ATOM      6  C   UNL     1      49.400 160.277  31.548  0.00  0.00    +0.022 C 
ATOM      7  C   UNL     1      50.643 160.211  30.939  0.00  0.00    +0.019 C 
ATOM      8  N   UNL     1      50.614 156.607  29.865  0.00  0.00    -0.214 N 
ATOM      9  C   UNL     1      51.429 156.340  28.732  0.00  0.00    +0.064 C 
ATOM     10  C   UNL     1      52.557 157.027  28.319  0.00  0.00    +0.068 C 
ATOM     11  C   UNL     1      53.237 156.608  27.197  0.00  0.00    +0.006 C 
ATOM     12  C   UNL     1      52.799 155.496  26.465  0.00  0.00    +0.000 C 
ATOM     13  C   UNL     1      51.675 154.819  26.882  0.00  0.00    +0.001 C 
ATOM     14  C   UNL     1      51.006 155.247  28.002  0.00  0.00    +0.015 C 
ATOM     15  C   UNL     1      53.128 158.239  28.941  0.00  0.00    +0.251 C 
ATOM     16  O   UNL     1      54.322 158.445  28.686  0.00  0.00    -0.270 OA
ATOM     17  C   UNL     1      50.043 155.528  30.514  0.00  0.00    +0.312 C 
ATOM     18  O   UNL     1      50.230 154.332  30.280  0.00  0.00    -0.264 OA
ATOM     19  H   UNL     1      52.884 159.987  30.008  0.00  0.00    +0.155 HD
ENDROOT
TORSDOF 0
