REMARK  Name = =
REMARK  0 active torsions:
REMARK  status: ('A' for Active; 'I' for Inactive)
REMARK                            x       y       z     vdW  Elec       q    Type
REMARK                         _______ _______ _______ _____ _____    ______ ____
ROOT
ATOM      1  N   UNL     1      52.287 155.686  27.260  0.00  0.00    -0.274 NA
ATOM      2  C   UNL     1      53.268 154.741  26.724  0.00  0.00    +0.072 C 
ATOM      3  C   UNL     1      53.306 153.728  27.870  0.00  0.00    +0.019 C 
ATOM      4  C   UNL     1      51.795 153.500  28.022  0.00  0.00    +0.017 C 
ATOM      5  C   UNL     1      51.342 154.968  28.012  0.00  0.00    +0.058 C 
ATOM      6  C   UNL     1      51.180 155.370  29.440  0.00  0.00    +0.016 C 
ATOM      7  C   UNL     1      51.210 156.844  29.659  0.00  0.00    +0.003 C 
ATOM      8  C   UNL     1      52.246 157.560  28.869  0.00  0.00    +0.017 C 
ATOM      9  C   UNL     1      52.970 156.752  27.863  0.00  0.00    +0.072 C 
ENDROOT
TORSDOF 0
