REMARK  Name = =
REMARK  1 active torsions:
REMARK  status: ('A' for Active; 'I' for Inactive)
REMARK    1  A    between atoms: C_2  and  O_10
REMARK                            x       y       z     vdW  Elec       q    Type
REMARK                         _______ _______ _______ _____ _____    ______ ____
ROOT
ATOM      1  N   UNL     1      53.057 155.424  27.898  0.00  0.00    -0.252 NA
ATOM      2  C   UNL     1      53.172 154.581  26.754  0.00  0.00    +0.172 C 
ATOM      3  C   UNL     1      52.621 153.231  27.193  0.00  0.00    +0.048 C 
ATOM      4  C   UNL     1      51.724 153.512  28.365  0.00  0.00    +0.020 C 
ATOM      5  C   UNL     1      52.082 154.883  28.787  0.00  0.00    +0.060 C 
ATOM      6  C   UNL     1      50.910 155.808  28.985  0.00  0.00    +0.016 C 
ATOM      7  C   UNL     1      51.479 157.042  29.701  0.00  0.00    +0.003 C 
ATOM      8  C   UNL     1      52.521 157.620  28.780  0.00  0.00    +0.017 C 
ATOM      9  C   UNL     1      52.754 156.790  27.551  0.00  0.00    +0.074 C 
ENDROOT
BRANCH   2  10
ATOM     10  O   UNL     1      52.491 155.055  25.639  0.00  0.00    -0.370 OA
ATOM     11  H   UNL     1      52.610 154.437  24.901  0.00  0.00    +0.212 HD
ENDBRANCH   2  10
TORSDOF 1
