REMARK  Name = =
REMARK  3 active torsions:
REMARK  status: ('A' for Active; 'I' for Inactive)
REMARK    1  A    between atoms: N_1  and  S_19
REMARK    2  A    between atoms: S_19  and  C_20
REMARK    3  A    between atoms: C_20  and  O_22
REMARK                            x       y       z     vdW  Elec       q    Type
REMARK                         _______ _______ _______ _____ _____    ______ ____
ROOT
ATOM      1  N   UNL     1      51.798 160.743  31.253  0.00  0.00    -0.198 N 
ATOM      2  C   UNL     1      50.552 160.946  31.944  0.00  0.00    +0.097 C 
ATOM      3  C   UNL     1      49.308 160.376  31.761  0.00  0.00    +0.156 C 
ATOM      4  N   UNL     1      48.231 160.679  32.494  0.00  0.00    -0.227 NA
ATOM      5  C   UNL     1      48.331 161.606  33.493  0.00  0.00    +0.100 C 
ATOM      6  C   UNL     1      49.552 162.213  33.726  0.00  0.00    +0.022 C 
ATOM      7  C   UNL     1      50.653 161.883  32.954  0.00  0.00    +0.020 C 
ATOM      8  N   UNL     1      48.957 159.388  30.776  0.00  0.00    -0.214 N 
ATOM      9  C   UNL     1      49.851 158.404  30.223  0.00  0.00    +0.064 C 
ATOM     10  C   UNL     1      51.229 158.522  30.001  0.00  0.00    +0.069 C 
ATOM     11  C   UNL     1      51.929 157.490  29.456  0.00  0.00    +0.006 C 
ATOM     12  C   UNL     1      51.273 156.323  29.121  0.00  0.00    +0.000 C 
ATOM     13  C   UNL     1      49.917 156.224  29.347  0.00  0.00    +0.001 C 
ATOM     14  C   UNL     1      49.181 157.243  29.895  0.00  0.00    +0.015 C 
ATOM     15  C   UNL     1      52.049 159.695  30.326  0.00  0.00    +0.263 C 
ATOM     16  O   UNL     1      53.115 159.757  29.681  0.00  0.00    -0.269 OA
ATOM     17  C   UNL     1      47.634 159.368  30.306  0.00  0.00    +0.312 C 
ATOM     18  O   UNL     1      46.824 160.216  30.815  0.00  0.00    -0.264 OA
ENDROOT
BRANCH   1  19
ATOM     19  S   UNL     1      53.082 161.872  31.593  0.00  0.00    +0.032 S 
BRANCH  19  20
ATOM     20  C   UNL     1      53.649 162.714  30.133  0.00  0.00    +0.217 C 
ATOM     21  S   UNL     1      55.203 163.143  29.961  0.00  0.00    -0.003 S 
BRANCH  20  22
ATOM     22  O   UNL     1      52.753 163.008  29.130  0.00  0.00    -0.495 OA
ATOM     23  H   UNL     1      51.853 162.764  29.220  0.00  0.00    +0.293 HD
ENDBRANCH  20  22
ENDBRANCH  19  20
ENDBRANCH   1  19
TORSDOF 3
