REMARK  Name = =
REMARK  4 active torsions:
REMARK  status: ('A' for Active; 'I' for Inactive)
REMARK    1  A    between atoms: C_2  and  O_10
REMARK    2  A    between atoms: O_10  and  S_11
REMARK    3  A    between atoms: S_11  and  S_12
REMARK    4  A    between atoms: S_11  and  S_13
REMARK                            x       y       z     vdW  Elec       q    Type
REMARK                         _______ _______ _______ _____ _____    ______ ____
ROOT
ATOM      1  N   UNL     1      51.711 155.014  27.011  0.00  0.00    -0.251 NA
ATOM      2  C   UNL     1      52.253 153.698  27.042  0.00  0.00    +0.190 C 
ATOM      3  C   UNL     1      51.770 153.219  28.420  0.00  0.00    +0.049 C 
ATOM      4  C   UNL     1      51.675 154.450  29.280  0.00  0.00    +0.020 C 
ATOM      5  C   UNL     1      51.750 155.584  28.299  0.00  0.00    +0.060 C 
ATOM      6  C   UNL     1      52.804 156.578  28.578  0.00  0.00    +0.016 C 
ATOM      7  C   UNL     1      53.518 157.154  27.424  0.00  0.00    +0.003 C 
ATOM      8  C   UNL     1      53.382 156.452  26.128  0.00  0.00    +0.017 C 
ATOM      9  C   UNL     1      52.030 155.837  25.922  0.00  0.00    +0.074 C 
ENDROOT
BRANCH   2  10
ATOM     10  O   UNL     1      53.610 153.606  26.955  0.00  0.00    -0.292 OA
BRANCH  10  11
ATOM     11  S   UNL     1      54.015 152.294  25.953  0.00  0.00    -0.050 S 
ATOM     12  H   UNL     1      53.241 151.306  26.477  0.00  0.00    +0.131 HD
BRANCH  11  13
ATOM     13  S   UNL     1      53.895 152.706  24.310  0.00  0.00    -0.098 S 
ATOM     14  H   UNL     1      54.764 153.715  24.031  0.00  0.00    +0.115 HD
ENDBRANCH  11  13
BRANCH  11  15
ATOM     15  S   UNL     1      55.670 152.042  25.819  0.00  0.00    -0.098 S 
ATOM     16  H   UNL     1      56.254 153.144  25.276  0.00  0.00    +0.115 HD
ENDBRANCH  11  15
ENDBRANCH  10  11
ENDBRANCH   2  10
TORSDOF 4
