REMARK  Name = =
REMARK  8 active torsions:
REMARK  status: ('A' for Active; 'I' for Inactive)
REMARK    1  A    between atoms: S_1  and  S_3
REMARK    2  A    between atoms: S_1  and  O_4
REMARK    3  A    between atoms: S_1  and  S_14
REMARK    4  A    between atoms: O_4  and  C_6
REMARK    5  A    between atoms: S_14  and  S_15
REMARK    6  A    between atoms: S_15  and  S_17
REMARK    7  A    between atoms: S_15  and  S_18
REMARK    8  A    between atoms: S_18  and  S_19
REMARK                            x       y       z     vdW  Elec       q    Type
REMARK                         _______ _______ _______ _____ _____    ______ ____
ROOT
ATOM      1  S   UNL     1      53.542 153.571  26.158  0.00  0.00    +0.048 S 
ENDROOT
BRANCH   1   2
ATOM      2  S   UNL     1      54.985 154.361  25.237  0.00  0.00    -0.083 S 
ATOM      3  H   UNL     1      55.625 153.414  24.500  0.00  0.00    +0.116 HD
ENDBRANCH   1   2
BRANCH   1   4
ATOM      4  O   UNL     1      52.965 154.425  26.823  0.00  0.00    -0.277 OA
BRANCH   4   6
ATOM      5  N   UNL     1      51.430 155.973  27.633  0.00  0.00    -0.251 NA
ATOM      6  C   UNL     1      51.821 154.603  27.592  0.00  0.00    +0.191 C 
ATOM      7  C   UNL     1      52.051 154.138  29.009  0.00  0.00    +0.049 C 
ATOM      8  C   UNL     1      51.139 155.054  29.793  0.00  0.00    +0.020 C 
ATOM      9  C   UNL     1      51.000 156.307  28.948  0.00  0.00    +0.060 C 
ATOM     10  C   UNL     1      51.718 157.478  29.559  0.00  0.00    +0.016 C 
ATOM     11  C   UNL     1      53.197 157.368  29.333  0.00  0.00    +0.003 C 
ATOM     12  C   UNL     1      53.518 157.256  27.866  0.00  0.00    +0.017 C 
ATOM     13  C   UNL     1      52.325 156.891  27.025  0.00  0.00    +0.074 C 
ENDBRANCH   4   6
ENDBRANCH   1   4
BRANCH   1  14
ATOM     14  S   UNL     1      53.632 151.948  26.288  0.00  0.00    +0.014 S 
BRANCH  14  15
ATOM     15  S   UNL     1      53.188 150.850  25.833  0.00  0.00    -0.014 S 
BRANCH  15  16
ATOM     16  S   UNL     1      51.752 150.208  26.668  0.00  0.00    -0.098 S 
ATOM     17  H   UNL     1      51.377 149.036  26.089  0.00  0.00    +0.115 HD
ENDBRANCH  15  16
BRANCH  15  18
ATOM     18  S   UNL     1      54.004 149.991  24.685  0.00  0.00    -0.016 S 
BRANCH  18  19
ATOM     19  S   UNL     1      53.787 148.025  24.587  0.00  0.00    -0.098 S 
ATOM     20  H   UNL     1      54.549 147.535  23.573  0.00  0.00    +0.115 HD
ENDBRANCH  18  19
ENDBRANCH  15  18
ENDBRANCH  14  15
ENDBRANCH   1  14
TORSDOF 8
REMARK  Name = =
REMARK  8 active torsions:
REMARK  status: ('A' for Active; 'I' for Inactive)
REMARK    1  A    between atoms: S_1  and  S_3
REMARK    2  A    between atoms: S_1  and  O_4
REMARK    3  A    between atoms: S_1  and  S_14
REMARK    4  A    between atoms: O_4  and  C_6
REMARK    5  A    between atoms: S_14  and  S_15
REMARK    6  A    between atoms: S_15  and  S_17
REMARK    7  A    between atoms: S_15  and  S_18
REMARK    8  A    between atoms: S_18  and  S_19
REMARK                            x       y       z     vdW  Elec       q    Type
REMARK                         _______ _______ _______ _____ _____    ______ ____
ROOT
ATOM      1  H   UNK     1      55.276 153.462  27.478  0.00  0.00    +0.000 HD
ENDROOT
TORSDOF 0
REMARK  Name = =
REMARK  8 active torsions:
REMARK  status: ('A' for Active; 'I' for Inactive)
REMARK    1  A    between atoms: S_1  and  S_3
REMARK    2  A    between atoms: S_1  and  O_4
REMARK    3  A    between atoms: S_1  and  S_14
REMARK    4  A    between atoms: O_4  and  C_6
REMARK    5  A    between atoms: S_14  and  S_15
REMARK    6  A    between atoms: S_15  and  S_17
REMARK    7  A    between atoms: S_15  and  S_18
REMARK    8  A    between atoms: S_18  and  S_19
REMARK                            x       y       z     vdW  Elec       q    Type
REMARK                         _______ _______ _______ _____ _____    ______ ____
ROOT
ATOM      1  H   UNK     1      51.890 151.089  24.388  0.00  0.00    +0.000 HD
ENDROOT
TORSDOF 0
