REMARK  Name = =
REMARK  10 active torsions:
REMARK  status: ('A' for Active; 'I' for Inactive)
REMARK    1  A    between atoms: S_1  and  S_3
REMARK    2  A    between atoms: S_1  and  O_4
REMARK    3  A    between atoms: S_1  and  S_14
REMARK    4  A    between atoms: O_4  and  C_6
REMARK    5  A    between atoms: S_14  and  S_15
REMARK    6  A    between atoms: S_15  and  S_17
REMARK    7  A    between atoms: S_15  and  S_19
REMARK    8  A    between atoms: S_17  and  S_18
REMARK    9  A    between atoms: S_19  and  N_20
REMARK   10  A    between atoms: N_20  and  C_21
REMARK                            x       y       z     vdW  Elec       q    Type
REMARK                         _______ _______ _______ _____ _____    ______ ____
ROOT
ATOM      1  S   UNL     1      52.158 155.049  28.187  0.00  0.00    +0.048 S 
ENDROOT
BRANCH   1   2
ATOM      2  S   UNL     1      50.335 154.825  28.452  0.00  0.00    -0.083 S 
ATOM      3  H   UNL     1      49.870 153.861  27.613  0.00  0.00    +0.116 HD
ENDBRANCH   1   2
BRANCH   1   4
ATOM      4  O   UNL     1      52.626 155.907  28.920  0.00  0.00    -0.277 OA
BRANCH   4   6
ATOM      5  N   UNL     1      50.959 157.432  29.573  0.00  0.00    -0.251 NA
ATOM      6  C   UNL     1      52.210 156.840  29.898  0.00  0.00    +0.191 C 
ATOM      7  C   UNL     1      53.222 157.952  29.889  0.00  0.00    +0.049 C 
ATOM      8  C   UNL     1      52.591 159.034  29.027  0.00  0.00    +0.020 C 
ATOM      9  C   UNL     1      51.113 158.811  29.326  0.00  0.00    +0.060 C 
ATOM     10  C   UNL     1      50.723 159.732  30.422  0.00  0.00    +0.016 C 
ATOM     11  C   UNL     1      49.505 159.320  31.190  0.00  0.00    +0.003 C 
ATOM     12  C   UNL     1      48.847 158.192  30.425  0.00  0.00    +0.017 C 
ATOM     13  C   UNL     1      49.862 157.054  30.398  0.00  0.00    +0.074 C 
ENDBRANCH   4   6
ENDBRANCH   1   4
BRANCH   1  14
ATOM     14  S   UNL     1      52.787 154.100  26.975  0.00  0.00    +0.015 S 
BRANCH  14  15
ATOM     15  S   UNL     1      53.300 153.132  26.512  0.00  0.00    +0.007 S 
BRANCH  15  16
ATOM     16  S   UNL     1      52.396 151.723  26.049  0.00  0.00    -0.015 S 
BRANCH  16  17
ATOM     17  S   UNL     1      53.516 150.359  25.128  0.00  0.00    -0.098 S 
ATOM     18  H   UNL     1      52.745 149.289  24.796  0.00  0.00    +0.115 HD
ENDBRANCH  16  17
ENDBRANCH  15  16
BRANCH  15  19
ATOM     19  S   UNL     1      54.806 153.469  25.554  0.00  0.00    +0.022 S 
BRANCH  19  20
ATOM     20  N   UNL     1      55.970 152.292  25.829  0.00  0.00    -0.277 N 
ATOM     21  H   UNL     1      55.686 151.351  25.782  0.00  0.00    +0.161 HD
BRANCH  20  22
ATOM     22  C   UNL     1      57.358 152.556  26.130  0.00  0.00    +0.068 C 
ATOM     23  C   UNL     1      58.166 151.597  26.523  0.00  0.00    +0.018 C 
ENDBRANCH  20  22
ENDBRANCH  19  20
ENDBRANCH  15  19
ENDBRANCH  14  15
ENDBRANCH   1  14
TORSDOF 10
REMARK  Name = =
REMARK  10 active torsions:
REMARK  status: ('A' for Active; 'I' for Inactive)
REMARK    1  A    between atoms: S_1  and  S_3
REMARK    2  A    between atoms: S_1  and  O_4
REMARK    3  A    between atoms: S_1  and  S_14
REMARK    4  A    between atoms: O_4  and  C_6
REMARK    5  A    between atoms: S_14  and  S_15
REMARK    6  A    between atoms: S_15  and  S_17
REMARK    7  A    between atoms: S_15  and  S_19
REMARK    8  A    between atoms: S_17  and  S_18
REMARK    9  A    between atoms: S_19  and  N_20
REMARK   10  A    between atoms: N_20  and  C_21
REMARK                            x       y       z     vdW  Elec       q    Type
REMARK                         _______ _______ _______ _____ _____    ______ ____
ROOT
ATOM      1  H   UNK     1      52.103 153.410  29.321  0.00  0.00    +0.000 HD
ENDROOT
TORSDOF 0
REMARK  Name = =
REMARK  10 active torsions:
REMARK  status: ('A' for Active; 'I' for Inactive)
REMARK    1  A    between atoms: S_1  and  S_3
REMARK    2  A    between atoms: S_1  and  O_4
REMARK    3  A    between atoms: S_1  and  S_14
REMARK    4  A    between atoms: O_4  and  C_6
REMARK    5  A    between atoms: S_14  and  S_15
REMARK    6  A    between atoms: S_15  and  S_17
REMARK    7  A    between atoms: S_15  and  S_19
REMARK    8  A    between atoms: S_17  and  S_18
REMARK    9  A    between atoms: S_19  and  N_20
REMARK   10  A    between atoms: N_20  and  C_21
REMARK                            x       y       z     vdW  Elec       q    Type
REMARK                         _______ _______ _______ _____ _____    ______ ____
ROOT
ATOM      1  H   UNK     1      52.711 153.384  24.345  0.00  0.00    +0.000 HD
ENDROOT
TORSDOF 0
