REMARK  Name = =
REMARK  11 active torsions:
REMARK  status: ('A' for Active; 'I' for Inactive)
REMARK    1  A    between atoms: S_1  and  S_2
REMARK    2  A    between atoms: S_1  and  S_15
REMARK    3  A    between atoms: S_2  and  S_4
REMARK    4  A    between atoms: S_2  and  O_5
REMARK    5  A    between atoms: O_5  and  C_7
REMARK    6  A    between atoms: S_16  and  S_17
REMARK    7  A    between atoms: S_18  and  N_19
REMARK    8  A    between atoms: N_19  and  C_20
REMARK    9  A    between atoms: N_19  and  S_22
REMARK   10  A    between atoms: S_22  and  C_23
REMARK   11  A    between atoms: C_23  and  O_25
REMARK                            x       y       z     vdW  Elec       q    Type
REMARK                         _______ _______ _______ _____ _____    ______ ____
ROOT
ATOM      1  S   UNL     1      52.343 154.268  27.607  0.00  0.00    +0.002 S 
ENDROOT
BRANCH   1   2
ATOM      2  S   UNL     1      52.689 152.857  27.631  0.00  0.00    -0.065 S 
ATOM      3  S   UNL     1      51.311 151.872  28.086  0.00  0.00    -0.020 S 
ATOM      4  S   UNL     1      52.519 152.047  26.029  0.00  0.00    +0.014 S 
ATOM      5  H   UNL     1      53.866 152.899  28.311  0.00  0.00    +0.117 HD
BRANCH   3   6
ATOM      6  S   UNL     1      51.206 150.807  29.707  0.00  0.00    -0.099 S 
ATOM      7  H   UNL     1      50.224 151.298  30.509  0.00  0.00    +0.115 HD
ENDBRANCH   3   6
BRANCH   4   8
ATOM      8  N   UNL     1      53.781 151.916  25.016  0.00  0.00    -0.199 N 
BRANCH   8   9
ATOM      9  C   UNL     1      54.485 153.049  24.463  0.00  0.00    +0.085 C 
ATOM     10  C   UNL     1      53.981 153.740  23.459  0.00  0.00    +0.019 C 
ENDBRANCH   8   9
BRANCH   8  11
ATOM     11  S   UNL     1      54.430 150.341  24.474  0.00  0.00    +0.036 S 
BRANCH  11  12
ATOM     12  C   UNL     1      53.198 149.099  24.854  0.00  0.00    +0.217 C 
ATOM     13  S   UNL     1      53.546 147.558  24.419  0.00  0.00    -0.003 S 
BRANCH  12  14
ATOM     14  O   UNL     1      52.008 149.392  25.478  0.00  0.00    -0.495 OA
ATOM     15  H   UNL     1      51.813 150.275  25.725  0.00  0.00    +0.293 HD
ENDBRANCH  12  14
ENDBRANCH  11  12
ENDBRANCH   8  11
ENDBRANCH   4   8
ENDBRANCH   1   2
BRANCH   1  16
ATOM     16  S   UNL     1      52.323 155.594  27.655  0.00  0.00    +0.047 S 
BRANCH  16  17
ATOM     17  S   UNL     1      53.003 156.449  26.379  0.00  0.00    -0.083 S 
ATOM     18  H   UNL     1      53.345 155.585  25.386  0.00  0.00    +0.116 HD
ENDBRANCH  16  17
BRANCH  16  19
ATOM     19  O   UNL     1      51.818 156.365  28.985  0.00  0.00    -0.277 OA
BRANCH  19  21
ATOM     20  N   UNL     1      50.357 158.211  29.193  0.00  0.00    -0.251 NA
ATOM     21  C   UNL     1      50.558 156.866  28.827  0.00  0.00    +0.191 C 
ATOM     22  C   UNL     1      49.580 156.031  29.638  0.00  0.00    +0.049 C 
ATOM     23  C   UNL     1      48.459 157.044  29.860  0.00  0.00    +0.020 C 
ATOM     24  C   UNL     1      49.226 158.360  30.015  0.00  0.00    +0.060 C 
ATOM     25  C   UNL     1      49.480 158.579  31.465  0.00  0.00    +0.016 C 
ATOM     26  C   UNL     1      50.430 159.778  31.582  0.00  0.00    +0.003 C 
ATOM     27  C   UNL     1      51.706 159.368  30.898  0.00  0.00    +0.017 C 
ATOM     28  C   UNL     1      51.490 158.993  29.475  0.00  0.00    +0.074 C 
ENDBRANCH  19  21
ENDBRANCH  16  19
ENDBRANCH   1  16
TORSDOF 11
REMARK  Name = =
REMARK  11 active torsions:
REMARK  status: ('A' for Active; 'I' for Inactive)
REMARK    1  A    between atoms: S_1  and  S_2
REMARK    2  A    between atoms: S_1  and  S_15
REMARK    3  A    between atoms: S_2  and  S_4
REMARK    4  A    between atoms: S_2  and  O_5
REMARK    5  A    between atoms: O_5  and  C_7
REMARK    6  A    between atoms: S_16  and  S_17
REMARK    7  A    between atoms: S_18  and  N_19
REMARK    8  A    between atoms: N_19  and  C_20
REMARK    9  A    between atoms: N_19  and  S_22
REMARK   10  A    between atoms: S_22  and  C_23
REMARK   11  A    between atoms: C_23  and  O_25
REMARK                            x       y       z     vdW  Elec       q    Type
REMARK                         _______ _______ _______ _____ _____    ______ ____
ROOT
ATOM      1  H   UNK     1      54.184 155.994  28.501  0.00  0.00    +0.000 HD
ENDROOT
TORSDOF 0
