REMARK  Name = =
REMARK  14 active torsions:
REMARK  status: ('A' for Active; 'I' for Inactive)
REMARK    1  A    between atoms: S_1  and  S_3
REMARK    2  A    between atoms: S_1  and  S_16
REMARK    3  A    between atoms: S_1  and  S_18
REMARK    4  A    between atoms: S_3  and  S_4
REMARK    5  A    between atoms: S_4  and  S_5
REMARK    6  A    between atoms: S_4  and  O_6
REMARK    7  A    between atoms: O_6  and  C_8
REMARK    8  A    between atoms: S_16  and  S_17
REMARK    9  A    between atoms: S_18  and  N_19
REMARK   10  A    between atoms: N_19  and  C_20
REMARK   11  A    between atoms: N_19  and  S_22
REMARK   12  A    between atoms: S_22  and  C_23
REMARK   13  A    between atoms: S_22  and  C_26
REMARK   14  A    between atoms: C_23  and  O_25
REMARK                            x       y       z     vdW  Elec       q    Type
REMARK                         _______ _______ _______ _____ _____    ______ ____
ROOT
ATOM      1  S   UNL     1      52.742 155.304  27.439  0.00  0.00    +0.007 S 
ENDROOT
BRANCH   1   2
ATOM      2  S   UNL     1      52.853 156.284  28.116  0.00  0.00    +0.000 S 
BRANCH   2   3
ATOM      3  S   UNL     1      52.561 157.331  29.349  0.00  0.00    -0.036 S 
ATOM      4  H   UNL     1      52.275 156.773  30.556  0.00  0.00    +0.132 HD
BRANCH   3   5
ATOM      5  S   UNL     1      54.117 158.326  29.314  0.00  0.00    -0.098 S 
ATOM      6  H   UNL     1      54.303 158.833  28.066  0.00  0.00    +0.115 HD
ENDBRANCH   3   5
BRANCH   3   7
ATOM      7  O   UNL     1      51.327 157.775  29.729  0.00  0.00    -0.291 OA
BRANCH   7   9
ATOM      8  N   UNL     1      49.381 159.083  29.947  0.00  0.00    -0.251 NA
ATOM      9  C   UNL     1      50.818 159.056  29.649  0.00  0.00    +0.190 C 
ATOM     10  C   UNL     1      51.425 160.002  30.660  0.00  0.00    +0.049 C 
ATOM     11  C   UNL     1      50.487 159.995  31.844  0.00  0.00    +0.020 C 
ATOM     12  C   UNL     1      49.338 159.182  31.363  0.00  0.00    +0.060 C 
ATOM     13  C   UNL     1      48.011 159.615  31.916  0.00  0.00    +0.016 C 
ATOM     14  C   UNL     1      47.480 160.853  31.243  0.00  0.00    +0.003 C 
ATOM     15  C   UNL     1      48.280 161.283  30.058  0.00  0.00    +0.017 C 
ATOM     16  C   UNL     1      48.796 160.148  29.221  0.00  0.00    +0.074 C 
ENDBRANCH   7   9
ENDBRANCH   3   7
ENDBRANCH   2   3
ENDBRANCH   1   2
BRANCH   1  17
ATOM     17  S   UNL     1      51.370 155.421  26.221  0.00  0.00    -0.015 S 
BRANCH  17  18
ATOM     18  S   UNL     1      52.055 155.432  24.355  0.00  0.00    -0.098 S 
ATOM     19  H   UNL     1      51.010 155.519  23.489  0.00  0.00    +0.115 HD
ENDBRANCH  17  18
ENDBRANCH   1  17
BRANCH   1  20
ATOM     20  S   UNL     1      53.149 153.754  27.998  0.00  0.00    +0.034 S 
BRANCH  20  21
ATOM     21  N   UNL     1      52.781 152.533  26.903  0.00  0.00    -0.213 N 
BRANCH  21  22
ATOM     22  C   UNL     1      51.743 151.604  27.195  0.00  0.00    +0.083 C 
ATOM     23  C   UNL     1      51.531 151.098  28.396  0.00  0.00    +0.019 C 
ENDBRANCH  21  22
BRANCH  21  24
ATOM     24  S   UNL     1      53.563 152.269  25.391  0.00  0.00    -0.039 S 
ATOM     25  H   UNL     1      52.790 152.670  24.346  0.00  0.00    +0.118 HD
BRANCH  24  26
ATOM     26  C   UNL     1      55.075 153.071  25.442  0.00  0.00    +0.201 C 
ATOM     27  S   UNL     1      55.303 154.492  24.686  0.00  0.00    -0.004 S 
BRANCH  26  28
ATOM     28  O   UNL     1      56.140 152.524  26.129  0.00  0.00    -0.496 OA
ATOM     29  H   UNL     1      56.040 151.706  26.575  0.00  0.00    +0.293 HD
ENDBRANCH  26  28
ENDBRANCH  24  26
BRANCH  24  30
ATOM     30  C   UNL     1      53.991 150.554  25.391  0.00  0.00    +0.269 C 
ATOM     31  O   UNL     1      53.960 149.944  24.339  0.00  0.00    -0.276 OA
ENDBRANCH  24  30
ENDBRANCH  21  24
ENDBRANCH  20  21
ENDBRANCH   1  20
TORSDOF 14
REMARK  Name = =
REMARK  14 active torsions:
REMARK  status: ('A' for Active; 'I' for Inactive)
REMARK    1  A    between atoms: S_1  and  S_3
REMARK    2  A    between atoms: S_1  and  S_16
REMARK    3  A    between atoms: S_1  and  S_18
REMARK    4  A    between atoms: S_3  and  S_4
REMARK    5  A    between atoms: S_4  and  S_5
REMARK    6  A    between atoms: S_4  and  O_6
REMARK    7  A    between atoms: O_6  and  C_8
REMARK    8  A    between atoms: S_16  and  S_17
REMARK    9  A    between atoms: S_18  and  N_19
REMARK   10  A    between atoms: N_19  and  C_20
REMARK   11  A    between atoms: N_19  and  S_22
REMARK   12  A    between atoms: S_22  and  C_23
REMARK   13  A    between atoms: S_22  and  C_26
REMARK   14  A    between atoms: C_23  and  O_25
REMARK                            x       y       z     vdW  Elec       q    Type
REMARK                         _______ _______ _______ _____ _____    ______ ____
ROOT
ATOM      1  H   UNK     1      50.856 154.462  28.366  0.00  0.00    +0.000 HD
ENDROOT
TORSDOF 0
