REMARK  Name = =
REMARK  1 active torsions:
REMARK  status: ('A' for Active; 'I' for Inactive)
REMARK    1  A    between atoms: N_3  and  N_4
REMARK                            x       y       z     vdW  Elec       q    Type
REMARK                         _______ _______ _______ _____ _____    ______ ____
ROOT
ATOM      1  C   UNL     1      52.815 156.160  28.211  0.00  0.00    +0.320 C 
ATOM      2  O   UNL     1      52.383 157.331  28.040  0.00  0.00    -0.263 OA
ATOM      3  N   UNL     1      51.963 155.221  28.831  0.00  0.00    -0.198 N 
ATOM      4  H   UNL     1      52.299 154.305  28.965  0.00  0.00    +0.178 HD
ENDROOT
BRANCH   3   5
ATOM      5  N   UNL     1      50.683 155.516  29.261  0.00  0.00    -0.176 NA
ATOM      6  C   UNL     1      50.351 156.581  29.912  0.00  0.00    +0.140 C 
ENDBRANCH   3   5
TORSDOF 1
