REMARK  Name = =
REMARK  2 active torsions:
REMARK  status: ('A' for Active; 'I' for Inactive)
REMARK    1  A    between atoms: C_1  and  C_7
REMARK    2  A    between atoms: N_9  and  N_10
REMARK                            x       y       z     vdW  Elec       q    Type
REMARK                         _______ _______ _______ _____ _____    ______ ____
ROOT
ATOM      1  C   UNL     1      53.317 155.396  27.421  0.00  0.00    +0.203 C 
ATOM      2  S   UNL     1      52.664 153.821  26.738  0.00  0.00    -0.101 S 
ATOM      3  C   UNL     1      52.443 154.366  24.995  0.00  0.00    +0.150 C 
ATOM      4  N   UNL     1      52.484 155.805  25.191  0.00  0.00    -0.294 N 
ATOM      5  C   UNL     1      53.421 156.191  26.172  0.00  0.00    +0.242 C 
ATOM      6  O   UNL     1      54.268 157.112  26.024  0.00  0.00    -0.274 OA
ATOM      7  H   UNL     1      51.920 156.441  24.694  0.00  0.00    +0.150 HD
ENDROOT
BRANCH   1   8
ATOM      8  C   UNL     1      52.331 155.996  28.358  0.00  0.00    +0.260 C 
ATOM      9  O   UNL     1      52.091 157.216  28.252  0.00  0.00    -0.272 OA
ATOM     10  N   UNL     1      51.658 155.260  29.356  0.00  0.00    -0.205 N 
ATOM     11  H   UNL     1      51.840 154.297  29.451  0.00  0.00    +0.177 HD
BRANCH  10  12
ATOM     12  N   UNL     1      50.738 155.873  30.212  0.00  0.00    -0.176 NA
ATOM     13  C   UNL     1      49.699 156.494  29.824  0.00  0.00    +0.140 C 
ENDBRANCH  10  12
ENDBRANCH   1   8
TORSDOF 2
