REMARK  Name = =
REMARK  4 active torsions:
REMARK  status: ('A' for Active; 'I' for Inactive)
REMARK    1  A    between atoms: C_1  and  C_7
REMARK    2  A    between atoms: C_1  and  C_12
REMARK    3  A    between atoms: N_9  and  N_10
REMARK    4  A    between atoms: N_13  and  N_14
REMARK                            x       y       z     vdW  Elec       q    Type
REMARK                         _______ _______ _______ _____ _____    ______ ____
ROOT
ATOM      1  C   UNL     1      53.433 155.406  24.917  0.00  0.00    +0.216 C 
ATOM      2  S   UNL     1      52.949 153.808  24.199  0.00  0.00    -0.097 S 
ATOM      3  C   UNL     1      54.514 153.537  23.313  0.00  0.00    +0.150 C 
ATOM      4  N   UNL     1      55.421 154.261  24.170  0.00  0.00    -0.294 N 
ATOM      5  C   UNL     1      54.891 155.389  24.755  0.00  0.00    +0.246 C 
ATOM      6  O   UNL     1      55.611 156.378  25.143  0.00  0.00    -0.273 OA
ATOM      7  H   UNL     1      56.349 153.970  24.325  0.00  0.00    +0.150 HD
ENDROOT
BRANCH   1   8
ATOM      8  C   UNL     1      53.002 155.521  26.326  0.00  0.00    +0.263 C 
ATOM      9  O   UNL     1      53.517 156.356  27.117  0.00  0.00    -0.272 OA
ATOM     10  N   UNL     1      51.985 154.677  26.808  0.00  0.00    -0.204 N 
ATOM     11  H   UNL     1      51.573 154.021  26.201  0.00  0.00    +0.177 HD
BRANCH  10  12
ATOM     12  N   UNL     1      51.548 154.754  28.136  0.00  0.00    -0.176 NA
ATOM     13  C   UNL     1      51.976 153.959  29.056  0.00  0.00    +0.140 C 
ENDBRANCH  10  12
ENDBRANCH   1   8
BRANCH   1  14
ATOM     14  C   UNL     1      52.805 156.459  24.085  0.00  0.00    +0.118 C 
ATOM     15  N   UNL     1      51.581 156.773  24.274  0.00  0.00    -0.179 NA
BRANCH  15  16
ATOM     16  N   UNL     1      50.985 157.748  23.512  0.00  0.00    -0.191 N 
ATOM     17  C   UNL     1      49.795 157.563  22.754  0.00  0.00    +0.317 C 
ATOM     18  O   UNL     1      49.243 156.434  22.777  0.00  0.00    -0.251 OA
ATOM     19  N   UNL     1      49.298 158.669  22.015  0.00  0.00    -0.312 N 
ATOM     20  H   UNL     1      51.410 158.636  23.489  0.00  0.00    +0.179 HD
ATOM     21  H   UNL     1      48.477 158.575  21.480  0.00  0.00    +0.147 HD
ATOM     22  H   UNL     1      49.775 159.530  22.038  0.00  0.00    +0.147 HD
ENDBRANCH  15  16
ENDBRANCH   1  14
TORSDOF 4
