REMARK  Name = =
REMARK  5 active torsions:
REMARK  status: ('A' for Active; 'I' for Inactive)
REMARK    1  A    between atoms: C_1  and  C_4
REMARK    2  A    between atoms: C_1  and  C_15
REMARK    3  A    between atoms: N_2  and  N_11
REMARK    4  A    between atoms: C_15  and  C_21
REMARK    5  A    between atoms: N_23  and  N_24
REMARK                            x       y       z     vdW  Elec       q    Type
REMARK                         _______ _______ _______ _____ _____    ______ ____
ROOT
ATOM      1  C   UNL     1      53.860 152.725  25.218  0.00  0.00    +0.093 C 
ATOM      2  N   UNL     1      53.528 151.534  25.054  0.00  0.00    -0.184 NA
ENDROOT
BRANCH   1   4
ATOM      3  S   UNL     1      54.498 152.691  22.637  0.00  0.00    -0.112 S 
ATOM      4  C   UNL     1      54.918 153.291  24.278  0.00  0.00    +0.111 C 
ATOM      5  C   UNL     1      54.801 154.762  24.303  0.00  0.00    +0.006 C 
ATOM      6  C   UNL     1      55.106 155.578  23.312  0.00  0.00    +0.058 C 
ATOM      7  N   UNL     1      55.593 155.100  22.086  0.00  0.00    -0.299 N 
ATOM      8  C   UNL     1      55.051 153.911  21.440  0.00  0.00    +0.124 C 
ATOM      9  C   UNL     1      56.464 153.651  20.957  0.00  0.00    +0.052 C 
ATOM     10  C   UNL     1      56.493 155.187  20.957  0.00  0.00    +0.094 C 
ENDBRANCH   1   4
BRANCH   2  11
ATOM     11  N   UNL     1      52.670 150.669  25.633  0.00  0.00    -0.191 N 
ATOM     12  C   UNL     1      52.716 149.243  25.425  0.00  0.00    +0.317 C 
ATOM     13  O   UNL     1      53.597 148.779  24.663  0.00  0.00    -0.251 OA
ATOM     14  N   UNL     1      51.766 148.416  26.085  0.00  0.00    -0.312 N 
ATOM     15  H   UNL     1      51.975 151.031  26.229  0.00  0.00    +0.179 HD
ATOM     16  H   UNL     1      51.089 148.819  26.676  0.00  0.00    +0.147 HD
ATOM     17  H   UNL     1      51.785 147.441  25.951  0.00  0.00    +0.147 HD
ENDBRANCH   2  11
BRANCH   1  18
ATOM     18  C   UNL     1      53.373 153.709  26.220  0.00  0.00    +0.212 C 
ATOM     19  S   UNL     1      53.388 152.952  27.884  0.00  0.00    -0.098 S 
ATOM     20  C   UNL     1      51.567 152.862  28.107  0.00  0.00    +0.150 C 
ATOM     21  N   UNL     1      51.175 153.938  27.227  0.00  0.00    -0.294 N 
ATOM     22  C   UNL     1      51.960 154.089  26.083  0.00  0.00    +0.245 C 
ATOM     23  O   UNL     1      51.476 154.540  24.968  0.00  0.00    -0.273 OA
ATOM     24  H   UNL     1      50.408 154.524  27.421  0.00  0.00    +0.150 HD
BRANCH  18  25
ATOM     25  C   UNL     1      54.268 154.898  26.273  0.00  0.00    +0.263 C 
ATOM     26  O   UNL     1      55.500 154.745  26.128  0.00  0.00    -0.272 OA
ATOM     27  N   UNL     1      53.770 156.211  26.483  0.00  0.00    -0.204 N 
ATOM     28  H   UNL     1      52.801 156.342  26.598  0.00  0.00    +0.177 HD
BRANCH  27  29
ATOM     29  N   UNL     1      54.613 157.320  26.531  0.00  0.00    -0.176 NA
ATOM     30  C   UNL     1      54.864 157.984  25.439  0.00  0.00    +0.140 C 
ENDBRANCH  27  29
ENDBRANCH  18  25
ENDBRANCH   1  18
TORSDOF 5
