REMARK  Name = =
REMARK  7 active torsions:
REMARK  status: ('A' for Active; 'I' for Inactive)
REMARK    1  A    between atoms: C_1  and  C_4
REMARK    2  A    between atoms: C_1  and  C_26
REMARK    3  A    between atoms: N_2  and  N_22
REMARK    4  A    between atoms: S_3  and  O_11
REMARK    5  A    between atoms: O_11  and  C_12
REMARK    6  A    between atoms: C_26  and  C_32
REMARK    7  A    between atoms: N_34  and  N_35
REMARK                            x       y       z     vdW  Elec       q    Type
REMARK                         _______ _______ _______ _____ _____    ______ ____
ROOT
ATOM      1  C   UNL     1      52.774 153.912  25.773  0.00  0.00    +0.094 C 
ATOM      2  N   UNL     1      53.423 153.510  24.751  0.00  0.00    -0.184 NA
ENDROOT
BRANCH   1   4
ATOM      3  S   UNL     1      52.775 156.459  26.692  0.00  0.00    -0.059 S 
ATOM      4  C   UNL     1      51.991 155.162  25.674  0.00  0.00    +0.125 C 
ATOM      5  C   UNL     1      51.983 155.696  24.278  0.00  0.00    +0.007 C 
ATOM      6  C   UNL     1      52.987 156.410  23.817  0.00  0.00    +0.059 C 
ATOM      7  N   UNL     1      54.135 156.739  24.553  0.00  0.00    -0.298 N 
ATOM      8  C   UNL     1      54.381 156.270  25.932  0.00  0.00    +0.137 C 
ATOM      9  C   UNL     1      55.353 157.355  26.185  0.00  0.00    +0.054 C 
ATOM     10  C   UNL     1      55.383 157.412  24.662  0.00  0.00    +0.094 C 
ATOM     11  H   UNL     1      52.305 157.735  26.685  0.00  0.00    +0.125 HD
BRANCH   3  12
ATOM     12  O   UNL     1      52.530 156.368  28.322  0.00  0.00    -0.445 OA
BRANCH  12  13
ATOM     13  C   UNL     1      52.222 157.518  29.039  0.00  0.00    +0.152 C 
ATOM     14  C   UNL     1      50.993 157.793  29.569  0.00  0.00    +0.035 C 
ATOM     15  C   UNL     1      50.758 158.971  30.279  0.00  0.00    +0.003 C 
ATOM     16  C   UNL     1      51.780 159.865  30.447  0.00  0.00    +0.000 C 
ATOM     17  C   UNL     1      53.017 159.586  29.913  0.00  0.00    +0.003 C 
ATOM     18  C   UNL     1      53.235 158.433  29.222  0.00  0.00    +0.038 C 
ATOM     19  C   UNL     1      49.523 159.260  30.824  0.00  0.00    +0.000 C 
ATOM     20  C   UNL     1      48.489 158.351  30.660  0.00  0.00    +0.000 C 
ATOM     21  C   UNL     1      48.725 157.187  29.954  0.00  0.00    +0.000 C 
ATOM     22  C   UNL     1      49.966 156.878  29.397  0.00  0.00    +0.003 C 
ENDBRANCH  12  13
ENDBRANCH   3  12
ENDBRANCH   1   4
BRANCH   2  23
ATOM     23  N   UNL     1      53.660 153.868  23.499  0.00  0.00    -0.191 N 
ATOM     24  C   UNL     1      55.035 153.898  23.036  0.00  0.00    +0.317 C 
ATOM     25  O   UNL     1      55.949 153.579  23.834  0.00  0.00    -0.251 OA
ATOM     26  N   UNL     1      55.379 154.271  21.720  0.00  0.00    -0.312 N 
ATOM     27  H   UNL     1      52.920 154.108  22.896  0.00  0.00    +0.179 HD
ATOM     28  H   UNL     1      54.675 154.524  21.080  0.00  0.00    +0.147 HD
ATOM     29  H   UNL     1      56.323 154.278  21.441  0.00  0.00    +0.147 HD
ENDBRANCH   2  23
BRANCH   1  30
ATOM     30  C   UNL     1      52.836 153.071  26.952  0.00  0.00    +0.212 C 
ATOM     31  S   UNL     1      54.347 153.248  27.985  0.00  0.00    -0.098 S 
ATOM     32  C   UNL     1      53.514 152.500  29.469  0.00  0.00    +0.150 C 
ATOM     33  N   UNL     1      52.228 153.146  29.303  0.00  0.00    -0.294 N 
ATOM     34  C   UNL     1      51.816 153.383  28.002  0.00  0.00    +0.245 C 
ATOM     35  O   UNL     1      50.674 153.828  27.680  0.00  0.00    -0.273 OA
ATOM     36  H   UNL     1      51.675 153.403  30.076  0.00  0.00    +0.150 HD
BRANCH  30  37
ATOM     37  C   UNL     1      52.793 151.602  26.667  0.00  0.00    +0.259 C 
ATOM     38  O   UNL     1      53.888 151.007  26.393  0.00  0.00    -0.272 OA
ATOM     39  N   UNL     1      51.648 150.800  26.681  0.00  0.00    -0.231 N 
ATOM     40  H   UNL     1      50.767 151.202  26.859  0.00  0.00    +0.171 HD
BRANCH  39  41
ATOM     41  N   UNL     1      51.758 149.386  26.435  0.00  0.00    -0.130 NA
ATOM     42  C   UNL     1      52.276 148.746  27.385  0.00  0.00    +0.132 C 
ENDBRANCH  39  41
ENDBRANCH  30  37
ENDBRANCH   1  30
TORSDOF 7
