REMARK  Name = =
REMARK  0 active torsions:
REMARK  status: ('A' for Active; 'I' for Inactive)
REMARK                            x       y       z     vdW  Elec       q    Type
REMARK                         _______ _______ _______ _____ _____    ______ ____
ROOT
ATOM      1  C   UNL     1      50.757 154.921  28.683  0.00  0.00    +0.021 C 
ATOM      2  C   UNL     1      50.852 156.225  29.164  0.00  0.00    +0.099 A 
ATOM      3  N   UNL     1      49.872 156.786  29.898  0.00  0.00    -0.242 NA
ATOM      4  C   UNL     1      49.937 158.042  30.376  0.00  0.00    +0.099 A 
ATOM      5  C   UNL     1      51.086 158.780  30.083  0.00  0.00    +0.099 A 
ATOM      6  N   UNL     1      52.073 158.220  29.345  0.00  0.00    -0.242 NA
ATOM      7  C   UNL     1      51.985 156.960  28.877  0.00  0.00    +0.099 A 
ATOM      8  C   UNL     1      52.986 156.384  28.126  0.00  0.00    +0.021 C 
ATOM      9  C   UNL     1      52.885 155.077  27.646  0.00  0.00    +0.002 C 
ATOM     10  C   UNL     1      51.756 154.339  27.929  0.00  0.00    +0.002 C 
ATOM     11  C   UNL     1      51.156 160.069  30.571  0.00  0.00    +0.021 C 
ATOM     12  C   UNL     1      50.163 160.656  31.322  0.00  0.00    +0.002 C 
ATOM     13  C   UNL     1      49.036 159.913  31.603  0.00  0.00    +0.002 C 
ATOM     14  C   UNL     1      48.937 158.622  31.129  0.00  0.00    +0.021 C 
ENDROOT
TORSDOF 0
