REMARK  Name = =
REMARK  2 active torsions:
REMARK  status: ('A' for Active; 'I' for Inactive)
REMARK    1  A    between atoms: C_1  and  N_15
REMARK    2  A    between atoms: C_16  and  C_18
REMARK                            x       y       z     vdW  Elec       q    Type
REMARK                         _______ _______ _______ _____ _____    ______ ____
ROOT
ATOM      1  C   UNL     1      52.183 155.399  28.580  0.00  0.00    +0.070 C 
ATOM      2  C   UNL     1      51.556 156.561  29.064  0.00  0.00    +0.112 A 
ATOM      3  N   UNL     1      50.363 156.470  29.693  0.00  0.00    -0.241 NA
ATOM      4  C   UNL     1      49.751 157.570  30.160  0.00  0.00    +0.099 A 
ATOM      5  C   UNL     1      50.340 158.807  29.999  0.00  0.00    +0.099 A 
ATOM      6  N   UNL     1      51.525 158.930  29.378  0.00  0.00    -0.242 NA
ATOM      7  C   UNL     1      52.122 157.808  28.917  0.00  0.00    +0.100 A 
ATOM      8  C   UNL     1      53.330 157.984  28.291  0.00  0.00    +0.021 C 
ATOM      9  C   UNL     1      53.956 156.857  27.813  0.00  0.00    +0.003 C 
ATOM     10  C   UNL     1      53.371 155.596  27.968  0.00  0.00    +0.016 C 
ATOM     11  C   UNL     1      49.675 159.926  30.497  0.00  0.00    +0.021 C 
ATOM     12  C   UNL     1      48.458 159.841  31.140  0.00  0.00    +0.002 C 
ATOM     13  C   UNL     1      47.903 158.588  31.279  0.00  0.00    +0.002 C 
ATOM     14  C   UNL     1      48.515 157.445  30.808  0.00  0.00    +0.021 C 
ENDROOT
BRANCH   1  15
ATOM     15  N   UNL     1      51.495 154.192  28.797  0.00  0.00    -0.279 N 
ATOM     16  C   UNL     1      51.883 152.908  28.332  0.00  0.00    +0.250 C 
ATOM     17  O   UNL     1      52.945 152.807  27.652  0.00  0.00    -0.270 OA
ATOM     18  H   UNL     1      50.664 154.242  29.322  0.00  0.00    +0.155 HD
BRANCH  16  19
ATOM     19  C   UNL     1      51.078 151.718  28.625  0.00  0.00    +0.058 C 
ATOM     20  C   UNL     1      51.290 150.612  27.963  0.00  0.00    +0.005 C 
ENDBRANCH  16  19
ENDBRANCH   1  15
TORSDOF 2
