REMARK  Name = =
REMARK  3 active torsions:
REMARK  status: ('A' for Active; 'I' for Inactive)
REMARK    1  A    between atoms: C_1  and  N_15
REMARK    2  A    between atoms: N_15  and  N_18
REMARK    3  A    between atoms: C_16  and  C_19
REMARK                            x       y       z     vdW  Elec       q    Type
REMARK                         _______ _______ _______ _____ _____    ______ ____
ROOT
ATOM      1  C   UNL     1      50.459 158.143  29.829  0.00  0.00    +0.089 C 
ATOM      2  C   UNL     1      51.081 157.310  28.934  0.00  0.00    +0.114 A 
ATOM      3  N   UNL     1      52.064 157.706  28.101  0.00  0.00    -0.241 NA
ATOM      4  C   UNL     1      52.647 156.849  27.237  0.00  0.00    +0.099 A 
ATOM      5  C   UNL     1      52.255 155.534  27.177  0.00  0.00    +0.099 A 
ATOM      6  N   UNL     1      51.275 155.116  27.999  0.00  0.00    -0.242 NA
ATOM      7  C   UNL     1      50.693 155.971  28.863  0.00  0.00    +0.100 A 
ATOM      8  C   UNL     1      49.688 155.575  29.718  0.00  0.00    +0.021 C 
ATOM      9  C   UNL     1      49.064 156.418  30.616  0.00  0.00    +0.003 C 
ATOM     10  C   UNL     1      49.454 157.739  30.680  0.00  0.00    +0.018 C 
ATOM     11  C   UNL     1      52.858 154.648  26.282  0.00  0.00    +0.021 C 
ATOM     12  C   UNL     1      53.856 155.117  25.460  0.00  0.00    +0.002 C 
ATOM     13  C   UNL     1      54.273 156.431  25.495  0.00  0.00    +0.002 C 
ATOM     14  C   UNL     1      53.654 157.290  26.396  0.00  0.00    +0.021 C 
ENDROOT
BRANCH   1  15
ATOM     15  N   UNL     1      50.903 159.528  29.853  0.00  0.00    -0.201 N 
ATOM     16  C   UNL     1      52.225 159.754  30.236  0.00  0.00    +0.266 C 
ATOM     17  O   UNL     1      52.982 158.752  30.555  0.00  0.00    -0.268 OA
BRANCH  15  18
ATOM     18  N   UNL     1      49.991 160.496  29.499  0.00  0.00    -0.247 NA
ATOM     19  H   UNL     1      49.101 160.055  29.264  0.00  0.00    +0.141 HD
ATOM     20  H   UNL     1      50.339 161.011  28.691  0.00  0.00    +0.141 HD
ENDBRANCH  15  18
BRANCH  16  21
ATOM     21  C   UNL     1      52.850 161.030  30.317  0.00  0.00    +0.060 C 
ATOM     22  C   UNL     1      52.243 162.170  30.190  0.00  0.00    +0.005 C 
ENDBRANCH  16  21
ENDBRANCH   1  15
TORSDOF 3
