REMARK  Name = =
REMARK  4 active torsions:
REMARK  status: ('A' for Active; 'I' for Inactive)
REMARK    1  A    between atoms: C_1  and  N_15
REMARK    2  A    between atoms: N_15  and  N_18
REMARK    3  A    between atoms: C_16  and  C_20
REMARK    4  A    between atoms: N_18  and  S_19
REMARK                            x       y       z     vdW  Elec       q    Type
REMARK                         _______ _______ _______ _____ _____    ______ ____
ROOT
ATOM      1  C   UNL     1      51.856 157.524  29.616  0.00  0.00    +0.090 C 
ATOM      2  C   UNL     1      50.947 158.468  30.049  0.00  0.00    +0.114 A 
ATOM      3  N   UNL     1      49.679 158.082  30.205  0.00  0.00    -0.241 NA
ATOM      4  C   UNL     1      48.740 158.940  30.621  0.00  0.00    +0.099 A 
ATOM      5  C   UNL     1      49.150 160.252  30.880  0.00  0.00    +0.099 A 
ATOM      6  N   UNL     1      50.418 160.654  30.728  0.00  0.00    -0.242 NA
ATOM      7  C   UNL     1      51.364 159.776  30.307  0.00  0.00    +0.100 A 
ATOM      8  C   UNL     1      52.669 160.112  30.130  0.00  0.00    +0.021 C 
ATOM      9  C   UNL     1      53.593 159.160  29.693  0.00  0.00    +0.003 C 
ATOM     10  C   UNL     1      53.176 157.854  29.435  0.00  0.00    +0.018 C 
ATOM     11  C   UNL     1      48.176 161.136  31.307  0.00  0.00    +0.021 C 
ATOM     12  C   UNL     1      46.859 160.772  31.479  0.00  0.00    +0.002 C 
ATOM     13  C   UNL     1      46.462 159.478  31.220  0.00  0.00    +0.002 C 
ATOM     14  C   UNL     1      47.417 158.578  30.793  0.00  0.00    +0.021 C 
ENDROOT
BRANCH   1  15
ATOM     15  N   UNL     1      51.379 156.184  29.322  0.00  0.00    -0.189 N 
ATOM     16  C   UNL     1      52.272 155.370  28.599  0.00  0.00    +0.267 C 
ATOM     17  O   UNL     1      53.428 155.847  28.355  0.00  0.00    -0.268 OA
BRANCH  15  18
ATOM     18  N   UNL     1      50.149 155.763  29.744  0.00  0.00    -0.179 NA
ATOM     19  H   UNL     1      49.596 155.530  28.920  0.00  0.00    +0.158 HD
BRANCH  18  20
ATOM     20  S   UNL     1      50.160 154.364  30.804  0.00  0.00    -0.079 S 
ATOM     21  H   UNL     1      50.892 154.643  31.916  0.00  0.00    +0.121 HD
ENDBRANCH  18  20
ENDBRANCH  15  18
BRANCH  16  22
ATOM     22  C   UNL     1      51.896 154.049  28.153  0.00  0.00    +0.060 C 
ATOM     23  C   UNL     1      50.828 153.684  27.501  0.00  0.00    +0.005 C 
ENDBRANCH  16  22
ENDBRANCH   1  15
TORSDOF 4
