REMARK  Name = =
REMARK  14 active torsions:
REMARK  status: ('A' for Active; 'I' for Inactive)
REMARK    1  A    between atoms: N_1  and  N_2
REMARK    2  A    between atoms: N_1  and  S_21
REMARK    3  A    between atoms: N_2  and  C_5
REMARK    4  A    between atoms: C_3  and  C_19
REMARK    5  A    between atoms: S_21  and  O_22
REMARK    6  A    between atoms: O_22  and  P_23
REMARK    7  A    between atoms: P_23  and  O_25
REMARK    8  A    between atoms: P_23  and  O_30
REMARK    9  A    between atoms: O_25  and  P_26
REMARK   10  A    between atoms: P_26  and  O_28
REMARK   11  A    between atoms: P_26  and  O_29
REMARK   12  A    between atoms: O_30  and  P_31
REMARK   13  A    between atoms: P_31  and  O_33
REMARK   14  A    between atoms: P_31  and  O_34
REMARK                            x       y       z     vdW  Elec       q    Type
REMARK                         _______ _______ _______ _____ _____    ______ ____
ROOT
ATOM      1  N   UNL     1      53.718 158.225  28.784  0.00  0.00    -0.151 NA
ATOM      2  H   UNL     1      54.336 157.640  29.346  0.00  0.00    +0.161 HD
ENDROOT
BRANCH   1   3
ATOM      3  N   UNL     1      52.776 158.820  29.668  0.00  0.00    -0.187 N 
ATOM      4  C   UNL     1      53.291 159.967  30.296  0.00  0.00    +0.267 C 
ATOM      5  O   UNL     1      52.756 160.569  31.234  0.00  0.00    -0.268 OA
BRANCH   3   6
ATOM      6  C   UNL     1      51.556 158.192  29.840  0.00  0.00    +0.090 C 
ATOM      7  C   UNL     1      50.465 158.820  30.451  0.00  0.00    +0.114 A 
ATOM      8  N   UNL     1      50.539 160.086  30.925  0.00  0.00    -0.241 NA
ATOM      9  C   UNL     1      49.538 160.716  31.525  0.00  0.00    +0.099 A 
ATOM     10  C   UNL     1      48.352 159.996  31.657  0.00  0.00    +0.099 A 
ATOM     11  N   UNL     1      48.255 158.735  31.192  0.00  0.00    -0.242 NA
ATOM     12  C   UNL     1      49.289 158.119  30.586  0.00  0.00    +0.100 A 
ATOM     13  C   UNL     1      49.138 156.801  30.137  0.00  0.00    +0.021 C 
ATOM     14  C   UNL     1      50.245 156.227  29.541  0.00  0.00    +0.003 C 
ATOM     15  C   UNL     1      51.427 156.869  29.383  0.00  0.00    +0.018 C 
ATOM     16  C   UNL     1      47.298 160.611  32.290  0.00  0.00    +0.021 C 
ATOM     17  C   UNL     1      47.369 161.902  32.797  0.00  0.00    +0.002 C 
ATOM     18  C   UNL     1      48.544 162.606  32.661  0.00  0.00    +0.002 C 
ATOM     19  C   UNL     1      49.603 161.996  32.027  0.00  0.00    +0.021 C 
ENDBRANCH   3   6
BRANCH   4  20
ATOM     20  C   UNL     1      54.580 160.546  29.828  0.00  0.00    +0.060 C 
ATOM     21  C   UNL     1      55.229 161.444  30.540  0.00  0.00    +0.005 C 
ENDBRANCH   4  20
ENDBRANCH   1   3
BRANCH   1  22
ATOM     22  S   UNL     1      53.107 157.250  27.508  0.00  0.00    +0.109 S 
BRANCH  22  23
ATOM     23  O   UNL     1      54.173 155.921  27.324  0.00  0.00    -0.197 OA
BRANCH  23  24
ATOM     24  P   UNL     1      53.576 154.563  26.605  0.00  0.00    +0.506 P 
ATOM     25  O   UNL     1      52.286 154.891  25.892  0.00  0.00    -0.225 OA
BRANCH  24  26
ATOM     26  O   UNL     1      54.635 153.881  25.478  0.00  0.00    -0.185 OA
BRANCH  26  27
ATOM     27  P   UNL     1      54.508 154.584  23.948  0.00  0.00    +0.481 P 
ATOM     28  O   UNL     1      54.862 156.034  24.089  0.00  0.00    -0.227 OA
BRANCH  27  29
ATOM     29  O   UNL     1      52.879 154.396  23.458  0.00  0.00    -0.302 OA
ATOM     30  H   UNL     1      52.295 154.814  24.110  0.00  0.00    +0.222 HD
ENDBRANCH  27  29
BRANCH  27  31
ATOM     31  O   UNL     1      55.459 153.846  22.788  0.00  0.00    -0.302 OA
ATOM     32  H   UNL     1      56.394 153.933  23.033  0.00  0.00    +0.222 HD
ENDBRANCH  27  31
ENDBRANCH  26  27
ENDBRANCH  24  26
BRANCH  24  33
ATOM     33  O   UNL     1      53.179 153.493  27.857  0.00  0.00    -0.185 OA
BRANCH  33  34
ATOM     34  P   UNL     1      51.892 152.495  27.545  0.00  0.00    +0.481 P 
ATOM     35  O   UNL     1      52.147 151.515  26.443  0.00  0.00    -0.227 OA
BRANCH  34  36
ATOM     36  O   UNL     1      51.612 151.559  28.957  0.00  0.00    -0.302 OA
ATOM     37  H   UNL     1      52.405 151.041  29.164  0.00  0.00    +0.222 HD
ENDBRANCH  34  36
BRANCH  34  38
ATOM     38  O   UNL     1      50.474 153.394  27.212  0.00  0.00    -0.302 OA
ATOM     39  H   UNL     1      50.316 154.026  27.930  0.00  0.00    +0.222 HD
ENDBRANCH  34  38
ENDBRANCH  33  34
ENDBRANCH  24  33
ENDBRANCH  23  24
ENDBRANCH  22  23
ENDBRANCH   1  22
TORSDOF 14
