REMARK  Name = =
REMARK  2 active torsions:
REMARK  status: ('A' for Active; 'I' for Inactive)
REMARK    1  A    between atoms: S_1  and  O_4
REMARK    2  A    between atoms: O_4  and  C_5
REMARK                            x       y       z     vdW  Elec       q    Type
REMARK                         _______ _______ _______ _____ _____    ______ ____
ROOT
ATOM      1  S   UNL     1      52.676 154.353  27.549  0.00  0.00    +0.010 S 
ATOM      2  O   UNL     1      51.635 155.388  27.820  0.00  0.00    -0.065 OA
ATOM      3  O   UNL     1      52.631 153.227  28.513  0.00  0.00    -0.065 OA
ATOM      4  H   UNL     1      53.904 154.915  27.707  0.00  0.00    +0.227 HD
ENDROOT
BRANCH   1   5
ATOM      5  O   UNL     1      52.476 153.801  25.930  0.00  0.00    -0.352 OA
BRANCH   5   6
ATOM      6  C   UNL     1      53.352 152.821  25.535  0.00  0.00    +0.250 C 
ATOM      7  S   UNL     1      52.900 151.271  25.614  0.00  0.00    -0.005 S 
ENDBRANCH   5   6
ENDBRANCH   1   5
TORSDOF 2
