REMARK  Name = =
REMARK  3 active torsions:
REMARK  status: ('A' for Active; 'I' for Inactive)
REMARK    1  A    between atoms: S_1  and  N_4
REMARK    2  A    between atoms: S_1  and  O_8
REMARK    3  A    between atoms: O_8  and  C_9
REMARK                            x       y       z     vdW  Elec       q    Type
REMARK                         _______ _______ _______ _____ _____    ______ ____
ROOT
ATOM      1  S   UNL     1      51.674 155.521  28.564  0.00  0.00    +0.093 S 
ATOM      2  O   UNL     1      50.420 154.881  28.019  0.00  0.00    -0.045 OA
ATOM      3  O   UNL     1      51.973 154.856  29.879  0.00  0.00    -0.045 OA
ENDROOT
BRANCH   1   4
ATOM      4  N   UNL     1      51.344 157.200  28.746  0.00  0.00    -0.146 NA
ATOM      5  C   UNL     1      52.528 157.974  29.150  0.00  0.00    +0.098 C 
ATOM      6  C   UNL     1      51.547 158.891  29.881  0.00  0.00    +0.038 C 
ATOM      7  C   UNL     1      50.810 157.558  30.070  0.00  0.00    +0.098 C 
ENDBRANCH   1   4
BRANCH   1   8
ATOM      8  O   UNL     1      52.912 155.238  27.461  0.00  0.00    -0.338 OA
BRANCH   8   9
ATOM      9  C   UNL     1      53.178 156.018  26.353  0.00  0.00    +0.252 C 
ATOM     10  S   UNL     1      53.800 155.409  24.979  0.00  0.00    -0.005 S 
ENDBRANCH   8   9
ENDBRANCH   1   8
TORSDOF 3
