REMARK  Name = =
REMARK  4 active torsions:
REMARK  status: ('A' for Active; 'I' for Inactive)
REMARK    1  A    between atoms: N_1  and  S_15
REMARK    2  A    between atoms: C_3  and  C_5
REMARK    3  A    between atoms: S_15  and  O_18
REMARK    4  A    between atoms: O_18  and  C_19
REMARK                            x       y       z     vdW  Elec       q    Type
REMARK                         _______ _______ _______ _____ _____    ______ ____
ROOT
ATOM      1  N   UNL     1      51.164 156.361  28.675  0.00  0.00    -0.146 NA
ATOM      2  C   UNL     1      51.670 157.436  27.852  0.00  0.00    +0.103 C 
ATOM      3  C   UNL     1      53.033 156.786  27.908  0.00  0.00    +0.058 C 
ATOM      4  C   UNL     1      52.511 156.109  29.148  0.00  0.00    +0.103 C 
ENDROOT
BRANCH   3   5
ATOM      5  C   UNL     1      53.301 155.799  26.838  0.00  0.00    -0.020 C 
ATOM      6  C   UNL     1      53.160 154.426  26.999  0.00  0.00    -0.004 C 
ATOM      7  C   UNL     1      53.415 153.542  25.996  0.00  0.00    -0.000 C 
ATOM      8  C   UNL     1      53.825 154.010  24.776  0.00  0.00    -0.000 C 
ATOM      9  C   UNL     1      53.989 155.384  24.543  0.00  0.00    -0.000 C 
ATOM     10  C   UNL     1      53.716 156.254  25.605  0.00  0.00    -0.004 C 
ATOM     11  C   UNL     1      54.105 153.110  23.656  0.00  0.00    -0.000 C 
ATOM     12  C   UNL     1      53.977 151.666  23.866  0.00  0.00    -0.000 C 
ATOM     13  C   UNL     1      53.533 151.256  25.191  0.00  0.00    -0.000 C 
ATOM     14  C   UNL     1      53.280 152.101  26.152  0.00  0.00    -0.000 C 
ENDBRANCH   3   5
BRANCH   1  15
ATOM     15  S   UNL     1      50.104 156.833  29.929  0.00  0.00    +0.093 S 
ATOM     16  O   UNL     1      50.279 155.986  31.146  0.00  0.00    -0.045 OA
ATOM     17  O   UNL     1      48.691 156.639  29.428  0.00  0.00    -0.045 OA
BRANCH  15  18
ATOM     18  O   UNL     1      50.370 158.463  30.322  0.00  0.00    -0.338 OA
BRANCH  18  19
ATOM     19  C   UNL     1      49.317 159.329  30.489  0.00  0.00    +0.252 C 
ATOM     20  S   UNL     1      49.489 160.734  31.277  0.00  0.00    -0.005 S 
ENDBRANCH  18  19
ENDBRANCH  15  18
ENDBRANCH   1  15
TORSDOF 4
