REMARK  Name = =
REMARK  0 active torsions:
REMARK  status: ('A' for Active; 'I' for Inactive)
REMARK                            x       y       z     vdW  Elec       q    Type
REMARK                         _______ _______ _______ _____ _____    ______ ____
ROOT
ATOM      1  C   UNL     1       3.123   7.599  42.288  0.00  0.00    +0.000 C 
ATOM      2  C   UNL     1       4.040   7.063  41.235  0.00  0.00    +0.000 C 
ATOM      3  C   UNL     1       4.692   5.790  41.612  0.00  0.00    +0.000 C 
ATOM      4  C   UNL     1       4.872   5.764  43.112  0.00  0.00    +0.000 C 
ATOM      5  C   UNL     1       5.064   7.156  43.687  0.00  0.00    +0.000 C 
ATOM      6  C   UNL     1       3.798   7.979  43.556  0.00  0.00    +0.000 C 
ATOM      7  C   UNL     1       3.188   6.959  39.971  0.00  0.00    +0.000 C 
ATOM      8  C   UNL     1       2.220   5.859  40.160  0.00  0.00    +0.000 C 
ATOM      9  C   UNL     1       1.221   5.860  39.063  0.00  0.00    +0.000 C 
ATOM     10  C   UNL     1       0.424   7.159  39.200  0.00  0.00    +0.000 C 
ATOM     11  C   UNL     1       1.284   8.371  39.096  0.00  0.00    +0.000 C 
ATOM     12  C   UNL     1       2.598   8.314  39.749  0.00  0.00    +0.000 C 
ATOM     13  C   UNL     1      -0.381   7.079  37.894  0.00  0.00    +0.000 C 
ATOM     14  C   UNL     1       0.676   6.700  36.911  0.00  0.00    +0.000 C 
ATOM     15  C   UNL     1       1.788   6.012  37.689  0.00  0.00    +0.000 C 
ATOM     16  C   UNL     1       1.571   5.781  41.485  0.00  0.00    +0.000 C 
ATOM     17  C   UNL     1       1.834   6.891  42.426  0.00  0.00    +0.000 C 
ENDROOT
TORSDOF 0
