REMARK  Name = =
REMARK  1 active torsions:
REMARK  status: ('A' for Active; 'I' for Inactive)
REMARK    1  A    between atoms: C_1  and  N_19
REMARK                            x       y       z     vdW  Elec       q    Type
REMARK                         _______ _______ _______ _____ _____    ______ ____
ROOT
ATOM      1  C   UNL     1       4.201   6.665  42.297  0.00  0.00    +0.042 C 
ATOM      2  C   UNL     1       4.199   7.316  40.951  0.00  0.00    +0.013 C 
ATOM      3  C   UNL     1       5.011   8.539  40.799  0.00  0.00    +0.001 C 
ATOM      4  C   UNL     1       4.604   9.505  41.908  0.00  0.00    +0.000 C 
ATOM      5  C   UNL     1       5.090   8.864  43.190  0.00  0.00    +0.001 C 
ATOM      6  C   UNL     1       4.323   7.591  43.448  0.00  0.00    +0.014 C 
ATOM      7  C   UNL     1       2.827   7.393  40.367  0.00  0.00    +0.001 C 
ATOM      8  C   UNL     1       2.411   6.001  39.947  0.00  0.00    +0.000 C 
ATOM      9  C   UNL     1       0.953   5.991  39.549  0.00  0.00    +0.000 C 
ATOM     10  C   UNL     1       0.690   7.040  38.527  0.00  0.00    +0.000 C 
ATOM     11  C   UNL     1       1.217   8.389  38.841  0.00  0.00    +0.000 C 
ATOM     12  C   UNL     1       2.684   8.380  39.248  0.00  0.00    +0.000 C 
ATOM     13  C   UNL     1       1.180   6.448  37.252  0.00  0.00    +0.000 C 
ATOM     14  C   UNL     1       1.283   4.940  37.469  0.00  0.00    +0.000 C 
ATOM     15  C   UNL     1       0.614   4.719  38.792  0.00  0.00    +0.000 C 
ATOM     16  C   UNL     1       2.682   5.092  41.128  0.00  0.00    +0.001 C 
ATOM     17  C   UNL     1       2.879   5.890  42.403  0.00  0.00    +0.014 C 
ENDROOT
BRANCH   1  19
ATOM     18  C   UNL     1       4.876   4.391  42.803  0.00  0.00    +0.086 C 
ATOM     19  N   UNL     1       5.248   5.685  42.339  0.00  0.00    -0.298 NA
ATOM     20  H   UNL     1       5.981   6.038  42.954  0.00  0.00    +0.123 HD
ENDBRANCH   1  19
TORSDOF 1
