REMARK  Name = =
REMARK  2 active torsions:
REMARK  status: ('A' for Active; 'I' for Inactive)
REMARK    1  A    between atoms: C_1  and  N_22
REMARK    2  A    between atoms: C_15  and  S_18
REMARK                            x       y       z     vdW  Elec       q    Type
REMARK                         _______ _______ _______ _____ _____    ______ ____
ROOT
ATOM      1  C   UNL     1       4.159   6.138  41.593  0.00  0.00    +0.042 C 
ATOM      2  C   UNL     1       3.448   7.470  41.666  0.00  0.00    +0.013 C 
ATOM      3  C   UNL     1       2.926   7.765  43.056  0.00  0.00    +0.001 C 
ATOM      4  C   UNL     1       4.052   8.048  44.038  0.00  0.00    +0.000 C 
ATOM      5  C   UNL     1       5.249   7.222  43.581  0.00  0.00    +0.001 C 
ATOM      6  C   UNL     1       4.707   5.948  43.006  0.00  0.00    +0.014 C 
ATOM      7  C   UNL     1       2.318   7.604  40.699  0.00  0.00    +0.001 C 
ATOM      8  C   UNL     1       1.317   6.555  41.148  0.00  0.00    +0.002 C 
ATOM      9  C   UNL     1       0.054   6.816  40.400  0.00  0.00    +0.022 C 
ATOM     10  C   UNL     1       0.192   7.164  38.976  0.00  0.00    +0.002 C 
ATOM     11  C   UNL     1       1.534   7.123  38.366  0.00  0.00    +0.000 C 
ATOM     12  C   UNL     1       2.697   7.275  39.289  0.00  0.00    +0.000 C 
ATOM     13  C   UNL     1      -0.517   8.454  38.697  0.00  0.00    +0.002 C 
ATOM     14  C   UNL     1      -1.512   8.544  39.816  0.00  0.00    +0.023 C 
ATOM     15  C   UNL     1      -0.701   7.993  40.984  0.00  0.00    +0.125 C 
ATOM     16  C   UNL     1       1.896   5.208  40.884  0.00  0.00    +0.001 C 
ATOM     17  C   UNL     1       3.283   4.968  41.310  0.00  0.00    +0.014 C 
ENDROOT
BRANCH  15  18
ATOM     18  S   UNL     1      -1.860   7.511  42.224  0.00  0.00    -0.032 S 
ATOM     19  O   UNL     1      -1.544   6.112  42.637  0.00  0.00    -0.176 OA
ATOM     20  O   UNL     1      -3.232   7.502  41.587  0.00  0.00    -0.176 OA
ATOM     21  H   UNL     1      -1.812   8.354  43.290  0.00  0.00    +0.210 HD
ENDBRANCH  15  18
BRANCH   1  23
ATOM     22  C   UNL     1       6.441   5.695  40.885  0.00  0.00    +0.086 C 
ATOM     23  N   UNL     1       5.195   6.311  40.615  0.00  0.00    -0.298 NA
ATOM     24  H   UNL     1       5.361   7.312  40.516  0.00  0.00    +0.123 HD
ENDBRANCH   1  23
TORSDOF 2
