REMARK  Name = =
REMARK  7 active torsions:
REMARK  status: ('A' for Active; 'I' for Inactive)
REMARK    1  A    between atoms: C_1  and  S_11
REMARK    2  A    between atoms: C_2  and  O_15
REMARK    3  A    between atoms: C_3  and  N_7
REMARK    4  A    between atoms: N_7  and  S_8
REMARK    5  A    between atoms: S_11  and  C_12
REMARK    6  A    between atoms: C_12  and  O_14
REMARK    7  A    between atoms: O_15  and  C_16
REMARK                            x       y       z     vdW  Elec       q    Type
REMARK                         _______ _______ _______ _____ _____    ______ ____
ROOT
ATOM      1  C   UNL     1     -10.784  -8.954  19.622  0.00  0.00    +0.069 C 
ATOM      2  C   UNL     1      -9.879  -9.629  20.440  0.00  0.00    +0.169 C 
ATOM      3  C   UNL     1      -8.997  -8.927  21.205  0.00  0.00    +0.099 C 
ATOM      4  C   UNL     1      -8.996  -7.543  21.173  0.00  0.00    +0.019 C 
ATOM      5  C   UNL     1      -9.882  -6.879  20.372  0.00  0.00    +0.002 C 
ATOM      6  C   UNL     1     -10.787  -7.570  19.586  0.00  0.00    +0.010 C 
ENDROOT
BRANCH   3   7
ATOM      7  N   UNL     1      -8.079  -9.612  22.026  0.00  0.00    -0.219 N 
ATOM      8  H   UNL     1      -7.721 -10.484  21.742  0.00  0.00    +0.173 HD
BRANCH   7   9
ATOM      9  S   UNL     1      -7.586  -8.930  23.513  0.00  0.00    +0.033 S 
ATOM     10  O   UNL     1      -6.723  -9.929  24.268  0.00  0.00    -0.158 OA
ATOM     11  O   UNL     1      -8.726  -8.611  24.433  0.00  0.00    -0.158 OA
ATOM     12  H   UNL     1      -6.931  -7.783  23.187  0.00  0.00    +0.233 HD
ENDBRANCH   7   9
ENDBRANCH   3   7
BRANCH   1  13
ATOM     13  S   UNL     1     -11.908  -9.917  18.649  0.00  0.00    -0.040 S 
BRANCH  13  14
ATOM     14  C   UNL     1     -13.029  -8.972  17.693  0.00  0.00    +0.203 C 
ATOM     15  S   UNL     1     -14.109  -9.810  16.746  0.00  0.00    -0.004 S 
BRANCH  14  16
ATOM     16  O   UNL     1     -13.095  -7.620  17.657  0.00  0.00    -0.496 OA
ATOM     17  H   UNL     1     -12.505  -7.108  18.175  0.00  0.00    +0.293 HD
ENDBRANCH  14  16
ENDBRANCH  13  14
ENDBRANCH   1  13
BRANCH   2  18
ATOM     18  O   UNL     1      -9.899 -10.993  20.454  0.00  0.00    -0.415 OA
BRANCH  18  19
ATOM     19  C   UNL     1      -8.991 -11.716  19.705  0.00  0.00    +0.423 C 
ATOM     20  O   UNL     1      -7.959 -11.115  19.307  0.00  0.00    -0.237 OA
ENDBRANCH  18  19
ENDBRANCH   2  18
TORSDOF 7
