REMARK  Name = =
REMARK  11 active torsions:
REMARK  status: ('A' for Active; 'I' for Inactive)
REMARK    1  A    between atoms: C_1  and  S_11
REMARK    2  A    between atoms: C_2  and  O_19
REMARK    3  A    between atoms: C_3  and  N_7
REMARK    4  A    between atoms: N_7  and  S_8
REMARK    5  A    between atoms: S_11  and  N_12
REMARK    6  A    between atoms: S_11  and  C_14
REMARK    7  A    between atoms: S_11  and  O_17
REMARK    8  A    between atoms: N_12  and  O_13
REMARK    9  A    between atoms: C_14  and  O_16
REMARK   10  A    between atoms: O_17  and  O_18
REMARK   11  A    between atoms: O_19  and  C_20
REMARK                            x       y       z     vdW  Elec       q    Type
REMARK                         _______ _______ _______ _____ _____    ______ ____
ROOT
ATOM      1  C   UNL     1      -9.670  -6.787  21.606  0.00  0.00    +0.092 C 
ATOM      2  C   UNL     1      -9.540  -7.780  20.615  0.00  0.00    +0.171 C 
ATOM      3  C   UNL     1     -10.524  -8.111  19.737  0.00  0.00    +0.099 C 
ATOM      4  C   UNL     1     -11.733  -7.462  19.783  0.00  0.00    +0.019 C 
ATOM      5  C   UNL     1     -11.919  -6.484  20.729  0.00  0.00    +0.002 C 
ATOM      6  C   UNL     1     -10.887  -6.167  21.619  0.00  0.00    +0.012 C 
ENDROOT
BRANCH   3   7
ATOM      7  N   UNL     1     -10.302  -9.122  18.764  0.00  0.00    -0.219 N 
ATOM      8  H   UNL     1      -9.592  -8.996  18.093  0.00  0.00    +0.173 HD
BRANCH   7   9
ATOM      9  S   UNL     1     -11.241 -10.559  18.729  0.00  0.00    +0.033 S 
ATOM     10  O   UNL     1     -10.949 -11.284  17.424  0.00  0.00    -0.158 OA
ATOM     11  O   UNL     1     -10.924 -11.489  19.861  0.00  0.00    -0.158 OA
ATOM     12  H   UNL     1     -12.548 -10.201  18.842  0.00  0.00    +0.233 HD
ENDBRANCH   7   9
ENDBRANCH   3   7
BRANCH   1  13
ATOM     13  S   UNL     1      -8.426  -6.452  22.637  0.00  0.00    +0.076 S 
BRANCH  13  14
ATOM     14  N   UNL     1      -7.978  -7.457  23.677  0.00  0.00    -0.130 NA
ATOM     15  H   UNL     1      -6.967  -7.560  23.585  0.00  0.00    +0.169 HD
BRANCH  14  16
ATOM     16  O   UNL     1      -8.240  -7.180  24.983  0.00  0.00    -0.303 OA
ATOM     17  H   UNL     1      -9.197  -7.076  25.106  0.00  0.00    +0.237 HD
ENDBRANCH  14  16
ENDBRANCH  13  14
BRANCH  13  18
ATOM     18  C   UNL     1      -7.219  -5.478  22.033  0.00  0.00    +0.225 C 
ATOM     19  S   UNL     1      -7.332  -4.863  20.512  0.00  0.00    -0.002 S 
BRANCH  18  20
ATOM     20  O   UNL     1      -6.085  -5.134  22.740  0.00  0.00    -0.495 OA
ATOM     21  H   UNL     1      -5.962  -5.453  23.612  0.00  0.00    +0.293 HD
ENDBRANCH  18  20
ENDBRANCH  13  18
BRANCH  13  22
ATOM     22  O   UNL     1      -9.322  -5.141  23.720  0.00  0.00    -0.159 OA
BRANCH  22  23
ATOM     23  O   UNL     1      -8.584  -4.099  23.525  0.00  0.00    -0.238 OA
ATOM     24  H   UNL     1      -8.940  -3.351  24.030  0.00  0.00    +0.254 HD
ENDBRANCH  22  23
ENDBRANCH  13  22
ENDBRANCH   1  13
BRANCH   2  25
ATOM     25  O   UNL     1      -8.328  -8.456  20.539  0.00  0.00    -0.415 OA
BRANCH  25  26
ATOM     26  C   UNL     1      -8.167  -9.711  21.114  0.00  0.00    +0.423 C 
ATOM     27  O   UNL     1      -8.839  -9.941  22.163  0.00  0.00    -0.237 OA
ENDBRANCH  25  26
ENDBRANCH   2  25
TORSDOF 11
