MODEL 1
REMARK VINA RESULT:    -8.978      0.000      0.000
REMARK INTER + INTRA:         -14.152
REMARK INTER:                 -12.390
REMARK INTRA:                  -1.762
REMARK UNBOUND:                -1.762
REMARK  Name = =
REMARK  7 active torsions:
REMARK  status: ('A' for Active; 'I' for Inactive)
REMARK    1  A    between atoms: C_1  and  C_11
REMARK    2  A    between atoms: C_5  and  N_17
REMARK    3  A    between atoms: C_6  and  N_29
REMARK    4  A    between atoms: C_7  and  C_24
REMARK    5  A    between atoms: N_29  and  C_30
REMARK    6  A    between atoms: C_32  and  N_36
REMARK    7  A    between atoms: C_33  and  O_40
REMARK                            x       y       z     vdW  Elec       q    Type
REMARK                         _______ _______ _______ _____ _____    ______ ____
ROOT
ATOM      1  C   UNL     1     -12.411  -1.481  31.124  0.00  0.00    +0.062 C 
ATOM      2  C   UNL     1     -13.502  -0.612  30.915  0.00  0.00    +0.137 C 
ATOM      3  C   UNL     1     -13.601   0.193  29.799  0.00  0.00    +0.022 C 
ATOM      4  C   UNL     1     -12.621   0.173  28.840  0.00  0.00    +0.015 C 
ATOM      5  C   UNL     1     -11.536  -0.658  29.000  0.00  0.00    +0.069 C 
ATOM      6  C   UNL     1     -11.470  -1.457  30.142  0.00  0.00    +0.066 C 
ATOM      7  C   UNL     1     -14.851   0.967  29.892  0.00  0.00    +0.108 C 
ATOM      8  C   UNL     1     -15.089   0.972  31.406  0.00  0.00    +0.215 C 
ATOM      9  O   UNL     1     -14.641  -0.355  31.691  0.00  0.00    -0.475 OA
ENDROOT
BRANCH   1  11
ATOM     10  C   UNL     1     -11.993  -2.142  33.518  0.00  0.00    +0.057 C 
ATOM     11  C   UNL     1     -12.387  -2.379  32.243  0.00  0.00    +0.056 C 
ATOM     12  N   UNL     1     -12.868  -3.655  32.055  0.00  0.00    -0.311 N 
ATOM     13  C   UNL     1     -12.938  -4.572  33.041  0.00  0.00    +0.065 C 
ATOM     14  C   UNL     1     -12.536  -4.318  34.325  0.00  0.00    +0.058 C 
ATOM     15  C   UNL     1     -12.049  -3.066  34.571  0.00  0.00    +0.198 C 
ATOM     16  O   UNL     1     -11.657  -2.752  35.723  0.00  0.00    -0.286 OA
ATOM     17  H   UNL     1     -13.177  -3.911  31.156  0.00  0.00    +0.152 HD
ENDBRANCH   1  11
BRANCH   5  18
ATOM     18  N   UNL     1     -10.513  -0.707  28.040  0.00  0.00    -0.233 N 
ATOM     19  C   UNL     1     -10.360  -1.787  27.084  0.00  0.00    +0.185 C 
ATOM     20  C   UNL     1      -9.590  -1.193  25.951  0.00  0.00    +0.250 C 
ATOM     21  O   UNL     1      -9.626  -1.658  24.779  0.00  0.00    -0.273 OA
ATOM     22  N   UNL     1      -8.891  -0.100  26.479  0.00  0.00    -0.238 N 
ATOM     23  C   UNL     1      -9.453   0.195  27.749  0.00  0.00    +0.314 C 
ATOM     24  O   UNL     1      -9.078   1.121  28.521  0.00  0.00    -0.252 OA
ATOM     25  H   UNL     1      -8.145   0.377  26.048  0.00  0.00    +0.159 HD
ENDBRANCH   5  18
BRANCH   7  26
ATOM     26  C   UNL     1     -14.731   2.334  29.366  0.00  0.00    +0.076 C 
ATOM     27  N   UNL     1     -15.198   2.727  28.232  0.00  0.00    -0.194 NA
ATOM     28  C   UNL     1     -14.913   4.115  28.016  0.00  0.00    +0.185 C 
ATOM     29  N   UNL     1     -14.196   4.501  29.202  0.00  0.00    -0.224 NA
ATOM     30  C   UNL     1     -14.091   3.472  29.982  0.00  0.00    +0.113 C 
ENDBRANCH   7  26
BRANCH   6  31
ATOM     31  N   UNL     1     -10.292  -2.218  30.219  0.00  0.00    -0.311 N 
ATOM     32  H   UNL     1     -10.212  -3.089  29.768  0.00  0.00    +0.152 HD
BRANCH  31  33
ATOM     33  C   UNL     1      -9.202  -1.664  30.994  0.00  0.00    +0.050 C 
ATOM     34  C   UNL     1      -8.168  -2.452  31.405  0.00  0.00    +0.033 C 
ATOM     35  C   UNL     1      -7.109  -1.926  32.158  0.00  0.00    +0.089 C 
ATOM     36  C   UNL     1      -7.099  -0.590  32.494  0.00  0.00    +0.147 C 
ATOM     37  C   UNL     1      -8.143   0.215  32.081  0.00  0.00    +0.039 C 
ATOM     38  C   UNL     1      -9.173  -0.329  31.342  0.00  0.00    +0.018 C 
BRANCH  35  39
ATOM     39  N   UNL     1      -6.036  -2.732  32.588  0.00  0.00    -0.247 N 
ATOM     40  C   UNL     1      -4.992  -3.059  31.696  0.00  0.00    +0.307 C 
ATOM     41  O   UNL     1      -5.035  -2.622  30.523  0.00  0.00    -0.265 OA
ATOM     42  C   UNL     1      -5.967  -3.248  33.942  0.00  0.00    +0.121 C 
ENDBRANCH  35  39
BRANCH  36  43
ATOM     43  O   UNL     1      -6.037  -0.073  33.245  0.00  0.00    -0.504 OA
ATOM     44  H   UNL     1      -6.094   0.791  33.604  0.00  0.00    +0.292 HD
ENDBRANCH  36  43
ENDBRANCH  31  33
ENDBRANCH   6  31
TORSDOF 7
ENDMDL
