MODEL 1
REMARK VINA RESULT:    -5.977      0.000      0.000
REMARK INTER + INTRA:          -7.196
REMARK INTER:                  -7.025
REMARK INTRA:                  -0.171
REMARK UNBOUND:                -0.171
REMARK  Name = =
REMARK  3 active torsions:
REMARK  status: ('A' for Active; 'I' for Inactive)
REMARK    1  A    between atoms: N_1  and  C_16
REMARK    2  A    between atoms: C_5  and  C_17
REMARK    3  A    between atoms: C_22  and  N_23
REMARK                            x       y       z     vdW  Elec       q    Type
REMARK                         _______ _______ _______ _____ _____    ______ ____
ROOT
ATOM      1  N   UNL     1      56.710 162.407  41.902  0.00  0.00    -0.304 N 
ATOM      2  C   UNL     1      57.381 163.092  43.034  0.00  0.00    +0.091 C 
ATOM      3  C   UNL     1      58.810 162.714  42.822  0.00  0.00    +0.024 C 
ATOM      4  C   UNL     1      58.911 162.961  41.328  0.00  0.00    +0.027 C 
ATOM      5  C   UNL     1      57.650 162.122  40.876  0.00  0.00    +0.112 C 
ENDROOT
BRANCH   1  16
ATOM      6  O   UNL     1      52.285 163.992  41.058  0.00  0.00    -0.475 OA
ATOM      7  C   UNL     1      52.663 164.914  40.074  0.00  0.00    +0.214 C 
ATOM      8  C   UNL     1      54.147 165.162  39.975  0.00  0.00    +0.117 C 
ATOM      9  C   UNL     1      54.887 164.458  41.029  0.00  0.00    +0.181 C 
ATOM     10  O   UNL     1      55.941 164.927  41.557  0.00  0.00    -0.291 OA
ATOM     11  C   UNL     1      54.436 163.156  41.532  0.00  0.00    +0.082 C 
ATOM     12  C   UNL     1      53.052 162.957  41.528  0.00  0.00    +0.142 C 
ATOM     13  C   UNL     1      52.574 161.752  41.995  0.00  0.00    +0.037 C 
ATOM     14  C   UNL     1      53.441 160.775  42.450  0.00  0.00    +0.004 C 
ATOM     15  C   UNL     1      54.808 160.995  42.444  0.00  0.00    +0.015 C 
ATOM     16  C   UNL     1      55.322 162.208  41.976  0.00  0.00    +0.054 C 
ENDBRANCH   1  16
BRANCH   5  17
ATOM     17  C   UNL     1      58.087 160.736  40.664  0.00  0.00    +0.089 C 
ATOM     18  N   UNL     1      57.682 159.858  41.576  0.00  0.00    -0.191 NA
ATOM     19  N   UNL     1      58.007 158.509  41.523  0.00  0.00    -0.258 N 
ATOM     20  C   UNL     1      59.224 158.190  40.798  0.00  0.00    +0.109 C 
ATOM     21  C   UNL     1      59.020 158.782  39.421  0.00  0.00    +0.048 C 
ATOM     22  C   UNL     1      58.911 160.297  39.564  0.00  0.00    +0.113 C 
ATOM     23  H   UNL     1      57.451 157.816  41.949  0.00  0.00    +0.169 HD
BRANCH  22  24
ATOM     24  N   UNL     1      58.540 160.808  38.295  0.00  0.00    -0.301 N 
ATOM     25  C   UNL     1      59.484 161.688  37.641  0.00  0.00    +0.223 C 
ATOM     26  O   UNL     1      60.568 161.980  38.194  0.00  0.00    -0.275 OA
ATOM     27  C   UNL     1      59.126 162.212  36.321  0.00  0.00    +0.095 C 
ATOM     28  H   UNL     1      57.680 160.574  37.878  0.00  0.00    +0.150 HD
ENDBRANCH  22  24
ENDBRANCH   5  17
TORSDOF 3
ENDMDL
