REMARK  Name = =
REMARK  0 active torsions:
REMARK  status: ('A' for Active; 'I' for Inactive)
REMARK                            x       y       z     vdW  Elec       q    Type
REMARK                         _______ _______ _______ _____ _____    ______ ____
ROOT
ATOM      1  C   UNL     1      50.850 155.118  29.448  0.00  0.00    +0.094 C 
ATOM      2  C   UNL     1      51.310 156.355  29.442  0.00  0.00    +0.019 C 
ATOM      3  C   UNL     1      51.092 157.611  29.956  0.00  0.00    +0.039 C 
ATOM      4  C   UNL     1      52.069 158.429  29.441  0.00  0.00    +0.179 C 
ATOM      5  O   UNL     1      52.825 157.707  28.666  0.00  0.00    -0.455 OA
ATOM      6  C   UNL     1      52.409 156.452  28.633  0.00  0.00    +0.127 C 
ATOM      7  C   UNL     1      52.713 155.284  28.078  0.00  0.00    +0.129 C 
ATOM      8  C   UNL     1      51.723 154.342  28.569  0.00  0.00    +0.163 C 
ATOM      9  O   UNL     1      51.639 153.115  28.292  0.00  0.00    -0.295 OA
ENDROOT
TORSDOF 0
