REMARK  Name = =
REMARK  4 active torsions:
REMARK  status: ('A' for Active; 'I' for Inactive)
REMARK    1  A    between atoms: C_1  and  O_10
REMARK    2  A    between atoms: O_10  and  C_11
REMARK    3  A    between atoms: C_11  and  C_13
REMARK    4  A    between atoms: C_13  and  C_16
REMARK                            x       y       z     vdW  Elec       q    Type
REMARK                         _______ _______ _______ _____ _____    ______ ____
ROOT
ATOM      1  C   UNL     1      53.457 154.154  26.288  0.00  0.00    +0.251 C 
ATOM      2  C   UNL     1      53.627 153.036  25.607  0.00  0.00    +0.058 C 
ATOM      3  C   UNL     1      53.631 151.671  25.790  0.00  0.00    +0.043 C 
ATOM      4  C   UNL     1      53.895 151.130  24.559  0.00  0.00    +0.179 C 
ATOM      5  O   UNL     1      54.038 152.100  23.704  0.00  0.00    -0.454 OA
ATOM      6  C   UNL     1      53.888 153.279  24.275  0.00  0.00    +0.130 C 
ATOM      7  C   UNL     1      53.901 154.566  24.019  0.00  0.00    +0.133 C 
ATOM      8  C   UNL     1      53.625 155.223  25.295  0.00  0.00    +0.202 C 
ATOM      9  O   UNL     1      53.543 156.438  25.523  0.00  0.00    -0.291 OA
ENDROOT
BRANCH   1  10
ATOM     10  O   UNL     1      53.181 154.257  27.645  0.00  0.00    -0.437 OA
BRANCH  10  11
ATOM     11  C   UNL     1      51.895 154.585  28.053  0.00  0.00    +0.338 C 
ATOM     12  O   UNL     1      50.949 153.823  27.739  0.00  0.00    -0.245 OA
BRANCH  11  13
ATOM     13  C   UNL     1      51.592 155.776  28.830  0.00  0.00    +0.053 C 
ATOM     14  C   UNL     1      52.459 156.803  28.818  0.00  0.00    +0.002 C 
BRANCH  13  16
ATOM     15  C   UNL     1      49.958 157.267  29.951  0.00  0.00    +0.005 C 
ATOM     16  C   UNL     1      50.350 155.842  29.615  0.00  0.00    +0.033 C 
ENDBRANCH  13  16
ENDBRANCH  11  13
ENDBRANCH  10  11
ENDBRANCH   1  10
TORSDOF 4
