REMARK  Name = =
REMARK  6 active torsions:
REMARK  status: ('A' for Active; 'I' for Inactive)
REMARK    1  A    between atoms: C_1  and  C_3
REMARK    2  A    between atoms: C_1  and  O_12
REMARK    3  A    between atoms: C_3  and  C_5
REMARK    4  A    between atoms: C_5  and  C_6
REMARK    5  A    between atoms: C_6  and  C_11
REMARK    6  A    between atoms: O_12  and  C_13
REMARK                            x       y       z     vdW  Elec       q    Type
REMARK                         _______ _______ _______ _____ _____    ______ ____
ROOT
ATOM      1  C   UNL     1      53.790 153.861  25.772  0.00  0.00    +0.338 C 
ATOM      2  O   UNL     1      54.178 153.423  26.877  0.00  0.00    -0.245 OA
ENDROOT
BRANCH   1   3
ATOM      3  C   UNL     1      54.273 153.204  24.522  0.00  0.00    +0.054 C 
ATOM      4  C   UNL     1      54.815 152.020  24.668  0.00  0.00    +0.002 C 
BRANCH   3   5
ATOM      5  C   UNL     1      54.110 153.922  23.240  0.00  0.00    +0.039 C 
BRANCH   5   6
ATOM      6  C   UNL     1      54.640 153.206  22.039  0.00  0.00    +0.048 C 
BRANCH   6  11
ATOM      7  N   UNL     1      55.531 154.782  20.342  0.00  0.00    -0.240 N 
ATOM      8  N   UNL     1      56.668 155.260  19.882  0.00  0.00    -0.180 NA
ATOM      9  C   UNL     1      57.692 154.732  20.561  0.00  0.00    +0.119 C 
ATOM     10  C   UNL     1      57.099 153.871  21.499  0.00  0.00    +0.034 C 
ATOM     11  C   UNL     1      55.752 153.899  21.365  0.00  0.00    +0.045 C 
ATOM     12  H   UNL     1      54.642 155.026  19.997  0.00  0.00    +0.174 HD
ENDBRANCH   6  11
ENDBRANCH   5   6
ENDBRANCH   3   5
ENDBRANCH   1   3
BRANCH   1  13
ATOM     13  O   UNL     1      52.921 154.943  25.686  0.00  0.00    -0.437 OA
BRANCH  13  14
ATOM     14  C   UNL     1      52.749 155.731  26.809  0.00  0.00    +0.251 C 
ATOM     15  C   UNL     1      51.895 155.494  27.788  0.00  0.00    +0.058 C 
ATOM     16  C   UNL     1      50.910 154.615  28.248  0.00  0.00    +0.043 C 
ATOM     17  C   UNL     1      50.449 155.101  29.454  0.00  0.00    +0.179 C 
ATOM     18  O   UNL     1      51.104 156.190  29.708  0.00  0.00    -0.454 OA
ATOM     19  C   UNL     1      51.970 156.471  28.757  0.00  0.00    +0.130 C 
ATOM     20  C   UNL     1      52.879 157.381  28.442  0.00  0.00    +0.133 C 
ATOM     21  C   UNL     1      53.441 156.963  27.164  0.00  0.00    +0.202 C 
ATOM     22  O   UNL     1      54.353 157.556  26.491  0.00  0.00    -0.291 OA
ENDBRANCH  13  14
ENDBRANCH   1  13
TORSDOF 6
