REMARK  Name = =
REMARK  4 active torsions:
REMARK  status: ('A' for Active; 'I' for Inactive)
REMARK    1  A    between atoms: P_1  and  O_3
REMARK    2  A    between atoms: P_1  and  O_4
REMARK    3  A    between atoms: P_1  and  C_5
REMARK    4  A    between atoms: C_5  and  O_7
REMARK                            x       y       z     vdW  Elec       q    Type
REMARK                         _______ _______ _______ _____ _____    ______ ____
ROOT
ATOM      1  P   UNL     1     -13.606 -43.166  27.559  0.00  0.00    +0.434 P 
ATOM      2  O   UNL     1     -14.475 -43.498  28.758  0.00  0.00    -0.247 OA
ENDROOT
BRANCH   1   3
ATOM      3  O   UNL     1     -14.371 -41.897  26.744  0.00  0.00    -0.316 OA
ATOM      4  H   UNL     1     -14.384 -41.110  27.311  0.00  0.00    +0.220 HD
ENDBRANCH   1   3
BRANCH   1   5
ATOM      5  O   UNL     1     -13.573 -44.551  26.587  0.00  0.00    -0.316 OA
ATOM      6  H   UNL     1     -13.132 -45.271  27.065  0.00  0.00    +0.220 HD
ENDBRANCH   1   5
BRANCH   1   7
ATOM      7  C   UNL     1     -11.977 -42.746  28.096  0.00  0.00    +0.418 C 
ATOM      8  O   UNL     1     -11.524 -43.255  29.158  0.00  0.00    -0.237 OA
BRANCH   7   9
ATOM      9  O   UNL     1     -11.153 -41.877  27.413  0.00  0.00    -0.472 OA
ATOM     10  H   UNL     1     -11.449 -41.476  26.620  0.00  0.00    +0.296 HD
ENDBRANCH   7   9
ENDBRANCH   1   7
TORSDOF 4
