REMARK  Name = =
REMARK  9 active torsions:
REMARK  status: ('A' for Active; 'I' for Inactive)
REMARK    1  A    between atoms: O_1  and  O_5
REMARK    2  A    between atoms: O_1  and  P_9
REMARK    3  A    between atoms: O_3  and  O_4
REMARK    4  A    between atoms: C_6  and  O_8
REMARK    5  A    between atoms: P_9  and  O_11
REMARK    6  A    between atoms: P_9  and  O_12
REMARK    7  A    between atoms: O_12  and  P_13
REMARK    8  A    between atoms: P_13  and  O_15
REMARK    9  A    between atoms: P_13  and  O_16
REMARK                            x       y       z     vdW  Elec       q    Type
REMARK                         _______ _______ _______ _____ _____    ______ ____
ROOT
ATOM      1  P   UNL     1     -14.565 -43.022  24.648  0.00  0.00    +0.510 P 
ATOM      2  O   UNL     1     -15.885 -43.184  25.388  0.00  0.00    -0.225 OA
ENDROOT
BRANCH   1   3
ATOM      3  O   UNL     1     -14.477 -44.212  23.469  0.00  0.00    -0.301 OA
ATOM      4  H   UNL     1     -14.413 -45.082  23.892  0.00  0.00    +0.222 HD
ENDBRANCH   1   3
BRANCH   1   5
ATOM      5  O   UNL     1     -13.255 -43.048  25.697  0.00  0.00    -0.129 OA
BRANCH   5   6
ATOM      6  O   UNL     1     -13.569 -44.229  26.799  0.00  0.00    -0.240 OA
ATOM      7  H   UNL     1     -12.836 -44.284  27.432  0.00  0.00    +0.254 HD
ENDBRANCH   5   6
ENDBRANCH   1   5
BRANCH   1   8
ATOM      8  O   UNL     1     -14.676 -41.522  23.838  0.00  0.00    -0.185 OA
BRANCH   8   9
ATOM      9  P   UNL     1     -16.216 -41.451  23.125  0.00  0.00    +0.481 P 
ATOM     10  O   UNL     1     -16.478 -42.759  22.390  0.00  0.00    -0.227 OA
BRANCH   9  11
ATOM     11  O   UNL     1     -16.261 -40.228  21.960  0.00  0.00    -0.302 OA
ATOM     12  H   UNL     1     -16.098 -39.371  22.384  0.00  0.00    +0.222 HD
ENDBRANCH   9  11
BRANCH   9  13
ATOM     13  O   UNL     1     -17.402 -41.126  24.266  0.00  0.00    -0.302 OA
ATOM     14  H   UNL     1     -17.394 -41.817  24.946  0.00  0.00    +0.222 HD
ENDBRANCH   9  13
ENDBRANCH   8   9
ENDBRANCH   1   8
TORSDOF 7
REMARK  Name = =
REMARK  9 active torsions:
REMARK  status: ('A' for Active; 'I' for Inactive)
REMARK    1  A    between atoms: O_1  and  O_5
REMARK    2  A    between atoms: O_1  and  P_9
REMARK    3  A    between atoms: O_3  and  O_4
REMARK    4  A    between atoms: C_6  and  O_8
REMARK    5  A    between atoms: P_9  and  O_11
REMARK    6  A    between atoms: P_9  and  O_12
REMARK    7  A    between atoms: O_12  and  P_13
REMARK    8  A    between atoms: P_13  and  O_15
REMARK    9  A    between atoms: P_13  and  O_16
REMARK                            x       y       z     vdW  Elec       q    Type
REMARK                         _______ _______ _______ _____ _____    ______ ____
ROOT
ATOM      1  P   UNL     1     -13.837 -42.645  27.247  0.00  0.00    +0.000 P 
ENDROOT
TORSDOF 0
REMARK  Name = =
REMARK  9 active torsions:
REMARK  status: ('A' for Active; 'I' for Inactive)
REMARK    1  A    between atoms: O_1  and  O_5
REMARK    2  A    between atoms: O_1  and  P_9
REMARK    3  A    between atoms: O_3  and  O_4
REMARK    4  A    between atoms: C_6  and  O_8
REMARK    5  A    between atoms: P_9  and  O_11
REMARK    6  A    between atoms: P_9  and  O_12
REMARK    7  A    between atoms: O_12  and  P_13
REMARK    8  A    between atoms: P_13  and  O_15
REMARK    9  A    between atoms: P_13  and  O_16
REMARK                            x       y       z     vdW  Elec       q    Type
REMARK                         _______ _______ _______ _____ _____    ______ ____
ROOT
ATOM      1  O   UNL     1     -14.738 -41.461  27.100  0.00  0.00    -0.253 OA
ATOM      2  H   UNL     1     -13.925 -41.076  27.463  0.00  0.00    +0.253 HD
ENDROOT
BRANCH   1   3
ATOM      3  O   UNL     1     -15.283 -42.667  28.114  0.00  0.00    -0.253 OA
ATOM      4  H   UNL     1     -16.096 -43.052  27.751  0.00  0.00    +0.253 HD
ENDBRANCH   1   3
TORSDOF 1
REMARK  Name = =
REMARK  9 active torsions:
REMARK  status: ('A' for Active; 'I' for Inactive)
REMARK    1  A    between atoms: O_1  and  O_5
REMARK    2  A    between atoms: O_1  and  P_9
REMARK    3  A    between atoms: O_3  and  O_4
REMARK    4  A    between atoms: C_6  and  O_8
REMARK    5  A    between atoms: P_9  and  O_11
REMARK    6  A    between atoms: P_9  and  O_12
REMARK    7  A    between atoms: O_12  and  P_13
REMARK    8  A    between atoms: P_13  and  O_15
REMARK    9  A    between atoms: P_13  and  O_16
REMARK                            x       y       z     vdW  Elec       q    Type
REMARK                         _______ _______ _______ _____ _____    ______ ____
ROOT
ATOM      1  C   UNL     1     -12.489 -42.660  28.384  0.00  0.00    +0.415 C 
ATOM      2  O   UNL     1     -12.538 -43.191  29.520  0.00  0.00    -0.238 OA
ENDROOT
BRANCH   1   3
ATOM      3  O   UNL     1     -11.304 -42.051  28.008  0.00  0.00    -0.473 OA
ATOM      4  H   UNL     1     -11.232 -41.645  27.167  0.00  0.00    +0.296 HD
ENDBRANCH   1   3
TORSDOF 1
