REMARK  Name = =
REMARK  8 active torsions:
REMARK  status: ('A' for Active; 'I' for Inactive)
REMARK    1  A    between atoms: C_1  and  O_16
REMARK    2  A    between atoms: O_4  and  O_5
REMARK    3  A    between atoms: P_8  and  O_10
REMARK    4  A    between atoms: P_8  and  O_11
REMARK    5  A    between atoms: O_11  and  P_12
REMARK    6  A    between atoms: P_12  and  O_14
REMARK    7  A    between atoms: P_12  and  O_15
REMARK    8  A    between atoms: O_16  and  C_17
REMARK                            x       y       z     vdW  Elec       q    Type
REMARK                         _______ _______ _______ _____ _____    ______ ____
ROOT
ATOM      1  C   UNL     1     -14.496 -41.788  25.004  0.00  0.00    +0.169 C 
ATOM      2  C   UNL     1     -14.165 -42.067  26.471  0.00  0.00    +0.040 C 
ATOM      3  C   UNL     1     -14.590 -43.487  26.592  0.00  0.00    +0.004 C 
ATOM      4  C   UNL     1     -14.003 -44.156  27.795  0.00  0.00    +0.000 C 
ATOM      5  C   UNL     1     -12.539 -44.074  27.826  0.00  0.00    +0.000 C 
ATOM      6  C   UNL     1     -11.906 -44.512  29.085  0.00  0.00    +0.000 C 
ATOM      7  C   UNL     1     -12.664 -44.204  30.332  0.00  0.00    +0.000 C 
ATOM      8  C   UNL     1     -14.143 -44.351  30.212  0.00  0.00    +0.000 C 
ATOM      9  C   UNL     1     -14.615 -43.532  29.031  0.00  0.00    +0.000 C 
ATOM     10  C   UNL     1     -12.179 -45.142  31.419  0.00  0.00    +0.000 C 
ATOM     11  C   UNL     1     -10.935 -45.903  30.956  0.00  0.00    +0.000 C 
ATOM     12  C   UNL     1      -9.927 -44.900  30.447  0.00  0.00    +0.000 C 
ATOM     13  C   UNL     1     -10.479 -44.137  29.247  0.00  0.00    +0.000 C 
ATOM     14  C   UNL     1     -11.901 -42.969  27.098  0.00  0.00    +0.000 C 
ATOM     15  C   UNL     1     -12.763 -41.779  26.824  0.00  0.00    +0.004 C 
ATOM     16  C   UNL     1     -14.148 -44.099  25.293  0.00  0.00    +0.004 C 
ATOM     17  C   UNL     1     -13.874 -42.984  24.329  0.00  0.00    +0.044 C 
ENDROOT
BRANCH   1  18
ATOM     18  O   UNL     1     -15.900 -41.932  24.890  0.00  0.00    -0.445 OA
BRANCH  18  19
ATOM     19  C   UNL     1     -16.593 -41.427  23.801  0.00  0.00    +0.418 C 
ATOM     20  O   UNL     1     -15.916 -40.830  22.927  0.00  0.00    -0.238 OA
ENDBRANCH  18  19
ENDBRANCH   1  18
TORSDOF 2
REMARK  Name = =
REMARK  8 active torsions:
REMARK  status: ('A' for Active; 'I' for Inactive)
REMARK    1  A    between atoms: C_1  and  O_16
REMARK    2  A    between atoms: O_4  and  O_5
REMARK    3  A    between atoms: P_8  and  O_10
REMARK    4  A    between atoms: P_8  and  O_11
REMARK    5  A    between atoms: O_11  and  P_12
REMARK    6  A    between atoms: P_12  and  O_14
REMARK    7  A    between atoms: P_12  and  O_15
REMARK    8  A    between atoms: O_16  and  C_17
REMARK                            x       y       z     vdW  Elec       q    Type
REMARK                         _______ _______ _______ _____ _____    ______ ____
ROOT
ATOM      1  P   UNL     1     -18.334 -41.566  23.573  0.00  0.00    +0.000 P 
ENDROOT
TORSDOF 0
REMARK  Name = =
REMARK  8 active torsions:
REMARK  status: ('A' for Active; 'I' for Inactive)
REMARK    1  A    between atoms: C_1  and  O_16
REMARK    2  A    between atoms: O_4  and  O_5
REMARK    3  A    between atoms: P_8  and  O_10
REMARK    4  A    between atoms: P_8  and  O_11
REMARK    5  A    between atoms: O_11  and  P_12
REMARK    6  A    between atoms: P_12  and  O_14
REMARK    7  A    between atoms: P_12  and  O_15
REMARK    8  A    between atoms: O_16  and  C_17
REMARK                            x       y       z     vdW  Elec       q    Type
REMARK                         _______ _______ _______ _____ _____    ______ ____
ROOT
ATOM      1  O   UNL     1     -19.249 -40.384  23.397  0.00  0.00    -0.253 OA
ATOM      2  H   UNL     1     -18.518 -39.786  23.618  0.00  0.00    +0.253 HD
ENDROOT
BRANCH   1   3
ATOM      3  O   UNL     1     -18.955 -41.079  22.059  0.00  0.00    -0.253 OA
ATOM      4  H   UNL     1     -19.686 -41.677  21.838  0.00  0.00    +0.253 HD
ENDBRANCH   1   3
TORSDOF 1
REMARK  Name = =
REMARK  8 active torsions:
REMARK  status: ('A' for Active; 'I' for Inactive)
REMARK    1  A    between atoms: C_1  and  O_16
REMARK    2  A    between atoms: O_4  and  O_5
REMARK    3  A    between atoms: P_8  and  O_10
REMARK    4  A    between atoms: P_8  and  O_11
REMARK    5  A    between atoms: O_11  and  P_12
REMARK    6  A    between atoms: P_12  and  O_14
REMARK    7  A    between atoms: P_12  and  O_15
REMARK    8  A    between atoms: O_16  and  C_17
REMARK                            x       y       z     vdW  Elec       q    Type
REMARK                         _______ _______ _______ _____ _____    ______ ____
ROOT
ATOM      1  O   HOH     1     -18.118 -42.988  24.462  0.00  0.00    -0.253 OA
ATOM      2  H   HOH     0     -17.148 -42.988  24.462  0.00  0.00    +0.253 HD
ENDROOT
TORSDOF 0
REMARK  Name = =
REMARK  8 active torsions:
REMARK  status: ('A' for Active; 'I' for Inactive)
REMARK    1  A    between atoms: C_1  and  O_16
REMARK    2  A    between atoms: O_4  and  O_5
REMARK    3  A    between atoms: P_8  and  O_10
REMARK    4  A    between atoms: P_8  and  O_11
REMARK    5  A    between atoms: O_11  and  P_12
REMARK    6  A    between atoms: P_12  and  O_14
REMARK    7  A    between atoms: P_12  and  O_15
REMARK    8  A    between atoms: O_16  and  C_17
REMARK                            x       y       z     vdW  Elec       q    Type
REMARK                         _______ _______ _______ _____ _____    ______ ____
ROOT
ATOM      1  O   UNL     1     -21.510 -41.717  23.552  0.00  0.00    -0.185 OA
ENDROOT
BRANCH   1   3
ATOM      2  O   UNL     1     -19.165 -41.385  24.999  0.00  0.00    -0.225 OA
ATOM      3  P   UNL     1     -20.669 -42.187  24.940  0.00  0.00    +0.511 P 
ATOM      4  O   UNL     1     -21.480 -41.709  26.134  0.00  0.00    -0.116 OA
BRANCH   3   5
ATOM      5  O   UNL     1     -20.488 -43.845  25.059  0.00  0.00    -0.301 OA
ATOM      6  H   UNL     1     -20.001 -44.060  25.870  0.00  0.00    +0.222 HD
ENDBRANCH   3   5
ENDBRANCH   1   3
BRANCH   1   7
ATOM      7  P   UNL     1     -22.767 -42.790  23.305  0.00  0.00    +0.481 P 
ATOM      8  O   UNL     1     -22.247 -43.945  22.460  0.00  0.00    -0.227 OA
BRANCH   7   9
ATOM      9  O   UNL     1     -23.335 -43.466  24.753  0.00  0.00    -0.302 OA
ATOM     10  H   UNL     1     -22.604 -43.907  25.213  0.00  0.00    +0.222 HD
ENDBRANCH   7   9
BRANCH   7  11
ATOM     11  O   UNL     1     -24.066 -42.025  22.521  0.00  0.00    -0.302 OA
ATOM     12  H   UNL     1     -24.388 -41.292  23.069  0.00  0.00    +0.222 HD
ENDBRANCH   7  11
ENDBRANCH   1   7
TORSDOF 5
