MODEL 1
REMARK VINA RESULT:    -7.568      0.000      0.000
REMARK INTER + INTRA:         -11.691
REMARK INTER:                 -10.664
REMARK INTRA:                  -1.027
REMARK UNBOUND:                -1.027
REMARK  Name = =
REMARK  7 active torsions:
REMARK  status: ('A' for Active; 'I' for Inactive)
REMARK    1  A    between atoms: C_1  and  O_13
REMARK    2  A    between atoms: C_12  and  C_25
REMARK    3  A    between atoms: O_13  and  C_15
REMARK    4  A    between atoms: C_25  and  C_26
REMARK    5  A    between atoms: C_26  and  C_27
REMARK    6  A    between atoms: C_27  and  O_28
REMARK    7  A    between atoms: O_28  and  C_29
REMARK                            x       y       z     vdW  Elec       q    Type
REMARK                         _______ _______ _______ _____ _____    ______ ____
ROOT
ATOM      1  C   UNL     1      48.830 166.790  41.292  0.00  0.00    +0.410 C 
ATOM      2  O   UNL     1      47.617 167.062  41.480  0.00  0.00    -0.226 OA
ATOM      3  N   UNL     1      49.839 167.499  42.002  0.00  0.00    -0.243 N 
ATOM      4  C   UNL     1      49.560 168.532  42.945  0.00  0.00    +0.102 C 
ATOM      5  C   UNL     1      50.144 169.827  42.500  0.00  0.00    +0.048 C 
ATOM      6  C   UNL     1      51.379 169.644  41.706  0.00  0.00    -0.023 C 
ATOM      7  C   UNL     1      51.903 168.423  41.349  0.00  0.00    -0.008 C 
ATOM      8  C   UNL     1      53.056 168.348  40.604  0.00  0.00    -0.003 C 
ATOM      9  C   UNL     1      53.745 169.475  40.178  0.00  0.00    -0.000 C 
ATOM     10  C   UNL     1      53.227 170.702  40.532  0.00  0.00    -0.000 C 
ATOM     11  C   UNL     1      52.066 170.773  41.281  0.00  0.00    -0.004 C 
ATOM     12  C   UNL     1      51.243 167.151  41.754  0.00  0.00    +0.101 C 
ENDROOT
BRANCH   1  13
ATOM     13  O   UNL     1      49.135 165.793  40.382  0.00  0.00    -0.410 OA
BRANCH  13  15
ATOM     14  C   UNL     1      47.637 163.913  40.703  0.00  0.00    +0.038 C 
ATOM     15  C   UNL     1      48.898 164.476  40.746  0.00  0.00    +0.153 C 
ATOM     16  C   UNL     1      49.978 163.725  41.162  0.00  0.00    +0.075 C 
ATOM     17  C   UNL     1      49.852 162.393  41.551  0.00  0.00    +0.152 C 
ATOM     18  C   UNL     1      48.588 161.837  41.504  0.00  0.00    +0.035 C 
ATOM     19  C   UNL     1      47.504 162.595  41.084  0.00  0.00    +0.006 C 
ATOM     20  C   UNL     1      48.457 160.521  41.885  0.00  0.00    +0.010 C 
ATOM     21  C   UNL     1      49.562 159.810  42.294  0.00  0.00    +0.082 C 
ATOM     22  C   UNL     1      50.806 160.430  42.318  0.00  0.00    +0.346 C 
ATOM     23  O   UNL     1      51.839 159.782  42.695  0.00  0.00    -0.244 OA
ATOM     24  O   UNL     1      50.873 161.684  41.944  0.00  0.00    -0.421 OA
ENDBRANCH  13  15
ENDBRANCH   1  13
BRANCH  12  25
ATOM     25  C   UNL     1      51.769 166.584  43.033  0.00  0.00    +0.028 C 
BRANCH  25  26
ATOM     26  C   UNL     1      53.147 165.965  42.897  0.00  0.00    +0.050 C 
BRANCH  26  27
ATOM     27  C   UNL     1      53.041 164.560  42.352  0.00  0.00    +0.209 C 
BRANCH  27  28
ATOM     28  O   UNL     1      54.041 164.254  41.430  0.00  0.00    -0.441 OA
BRANCH  28  29
ATOM     29  C   UNL     1      54.220 165.020  40.305  0.00  0.00    +0.418 C 
ATOM     30  O   UNL     1      53.564 164.786  39.264  0.00  0.00    -0.238 OA
ENDBRANCH  28  29
ENDBRANCH  27  28
ENDBRANCH  26  27
ENDBRANCH  25  26
ENDBRANCH  12  25
TORSDOF 7
ENDMDL
