REMARK  Name = =
REMARK  5 active torsions:
REMARK  status: ('A' for Active; 'I' for Inactive)
REMARK    1  A    between atoms: C_1  and  C_10
REMARK    2  A    between atoms: N_3  and  C_21
REMARK    3  A    between atoms: N_3  and  C_27
REMARK    4  A    between atoms: C_4  and  N_20
REMARK    5  A    between atoms: C_27  and  C_32
REMARK                            x       y       z     vdW  Elec       q    Type
REMARK                         _______ _______ _______ _____ _____    ______ ____
ROOT
ATOM      1  C   UNL     1     -25.127 -45.538  18.657  0.00  0.00    +0.238 C 
ATOM      2  O   UNL     1     -24.426 -46.383  19.315  0.00  0.00    -0.274 OA
ATOM      3  N   UNL     1     -25.469 -45.778  17.317  0.00  0.00    -0.237 N 
ENDROOT
BRANCH   1  10
ATOM      4  C   UNL     1     -24.338 -41.809  21.633  0.00  0.00    +0.086 C 
ATOM      5  C   UNL     1     -25.060 -42.774  20.930  0.00  0.00    +0.148 C 
ATOM      6  C   UNL     1     -24.462 -43.462  19.905  0.00  0.00    +0.025 C 
ATOM      7  C   UNL     1     -23.165 -43.207  19.575  0.00  0.00    -0.001 C 
ATOM      8  C   UNL     1     -22.441 -42.265  20.258  0.00  0.00    +0.001 C 
ATOM      9  C   UNL     1     -23.030 -41.553  21.299  0.00  0.00    +0.018 C 
ATOM     10  C   UNL     1     -25.541 -44.352  19.382  0.00  0.00    +0.146 C 
ATOM     11  C   UNL     1     -26.299 -44.613  20.680  0.00  0.00    +0.219 C 
ATOM     12  O   UNL     1     -26.397 -43.213  21.094  0.00  0.00    -0.474 OA
BRANCH   4  20
ATOM     13  N   UNL     1     -25.231 -39.707  24.664  0.00  0.00    -0.214 N 
ATOM     14  C   UNL     1     -26.641 -39.624  24.930  0.00  0.00    +0.112 C 
ATOM     15  C   UNL     1     -26.371 -38.515  25.933  0.00  0.00    +0.108 C 
ATOM     16  C   UNL     1     -24.957 -38.871  25.776  0.00  0.00    +0.234 C 
ATOM     17  O   UNL     1     -23.935 -38.503  26.451  0.00  0.00    -0.274 OA
ATOM     18  C   UNL     1     -24.399 -40.339  23.701  0.00  0.00    +0.314 C 
ATOM     19  O   UNL     1     -23.157 -40.212  23.760  0.00  0.00    -0.252 OA
ATOM     20  N   UNL     1     -24.991 -41.104  22.682  0.00  0.00    -0.265 N 
ATOM     21  H   UNL     1     -25.974 -41.159  22.696  0.00  0.00    +0.157 HD
ENDBRANCH   4  20
ENDBRANCH   1  10
BRANCH   3  22
ATOM     22  C   UNL     1     -26.270 -44.821  16.627  0.00  0.00    +0.056 C 
ATOM     23  C   UNL     1     -25.809 -43.846  15.789  0.00  0.00    +0.015 C 
ATOM     24  C   UNL     1     -26.661 -42.949  15.136  0.00  0.00    +0.001 C 
ATOM     25  C   UNL     1     -28.010 -43.016  15.316  0.00  0.00    +0.000 C 
ATOM     26  C   UNL     1     -28.507 -43.979  16.147  0.00  0.00    +0.001 C 
ATOM     27  C   UNL     1     -27.666 -44.855  16.783  0.00  0.00    +0.015 C 
ENDBRANCH   3  22
BRANCH   3  28
ATOM     28  C   UNL     1     -25.129 -46.965  16.559  0.00  0.00    +0.170 C 
ATOM     29  S   UNL     1     -23.327 -47.246  16.810  0.00  0.00    -0.103 S 
ATOM     30  C   UNL     1     -22.834 -47.083  15.068  0.00  0.00    +0.078 C 
ATOM     31  C   UNL     1     -24.211 -47.328  14.435  0.00  0.00    +0.082 C 
ATOM     32  N   UNL     1     -25.140 -46.559  15.174  0.00  0.00    -0.273 NA
ATOM     33  H   UNL     1     -26.074 -46.697  14.789  0.00  0.00    +0.126 HD
BRANCH  28  34
ATOM     34  C   UNL     1     -25.905 -48.157  16.839  0.00  0.00    +0.021 C 
ATOM     35  C   UNL     1     -25.541 -49.048  17.837  0.00  0.00    +0.017 C 
ATOM     36  C   UNL     1     -26.292 -50.175  18.113  0.00  0.00    +0.081 C 
ATOM     37  N   UNL     1     -27.409 -50.444  17.414  0.00  0.00    -0.244 NA
ATOM     38  C   UNL     1     -27.808 -49.616  16.436  0.00  0.00    +0.099 C 
ATOM     39  C   UNL     1     -27.072 -48.487  16.146  0.00  0.00    +0.020 C 
ATOM     40  C   UNL     1     -25.942 -51.089  19.092  0.00  0.00    +0.019 C 
ATOM     41  C   UNL     1     -24.805 -50.866  19.818  0.00  0.00    +0.001 C 
ATOM     42  C   UNL     1     -24.031 -49.753  19.572  0.00  0.00    +0.000 C 
ATOM     43  C   UNL     1     -24.405 -48.867  18.594  0.00  0.00    +0.001 C 
ATOM     44  C   UNL     1     -22.864 -49.533  20.318  0.00  0.00    +0.000 C 
ATOM     45  C   UNL     1     -22.462 -50.404  21.305  0.00  0.00    +0.000 C 
ATOM     46  C   UNL     1     -23.259 -51.505  21.525  0.00  0.00    +0.000 C 
ATOM     47  C   UNL     1     -24.405 -51.754  20.815  0.00  0.00    +0.000 C 
ENDBRANCH  28  34
ENDBRANCH   3  28
TORSDOF 5
