REMARK  Name = =
REMARK  7 active torsions:
REMARK  status: ('A' for Active; 'I' for Inactive)
REMARK    1  A    between atoms: C_1  and  N_26
REMARK    2  A    between atoms: C_14  and  O_34
REMARK    3  A    between atoms: N_26  and  S_27
REMARK    4  A    between atoms: S_27  and  N_30
REMARK    5  A    between atoms: C_31  and  O_33
REMARK    6  A    between atoms: O_34  and  C_35
REMARK    7  A    between atoms: N_37  and  N_38
REMARK                            x       y       z     vdW  Elec       q    Type
REMARK                         _______ _______ _______ _____ _____    ______ ____
ROOT
ATOM      1  C   UNL     1      51.430 153.939  28.256  0.00  0.00    +0.081 C 
ATOM      2  C   UNL     1      51.016 153.991  29.687  0.00  0.00    +0.018 C 
ATOM      3  C   UNL     1      52.127 154.779  30.343  0.00  0.00    +0.002 C 
ATOM      4  C   UNL     1      52.570 155.699  29.284  0.00  0.00    +0.006 C 
ATOM      5  C   UNL     1      52.027 155.295  27.979  0.00  0.00    +0.038 C 
ATOM      6  C   UNL     1      51.114 156.256  27.302  0.00  0.00    -0.030 C 
ATOM      7  C   UNL     1      51.344 157.700  27.603  0.00  0.00    -0.031 C 
ATOM      8  C   UNL     1      52.470 158.047  28.464  0.00  0.00    +0.023 C 
ATOM      9  C   UNL     1      52.828 157.081  29.555  0.00  0.00    +0.005 C 
ATOM     10  C   UNL     1      52.030 157.913  30.495  0.00  0.00    +0.006 C 
ATOM     11  C   UNL     1      52.310 159.065  29.560  0.00  0.00    +0.019 C 
ATOM     12  C   UNL     1      53.711 159.604  29.897  0.00  0.00    +0.072 C 
ATOM     13  N   UNL     1      53.755 160.229  31.183  0.00  0.00    -0.264 NA
ATOM     14  C   UNL     1      53.718 161.676  31.003  0.00  0.00    +0.230 C 
ATOM     15  C   UNL     1      52.253 162.017  30.785  0.00  0.00    +0.061 C 
ATOM     16  C   UNL     1      51.889 161.527  29.413  0.00  0.00    +0.006 C 
ATOM     17  C   UNL     1      51.300 160.106  29.447  0.00  0.00    +0.010 C 
ATOM     18  C   UNL     1      50.613 157.601  30.717  0.00  0.00    +0.022 C 
ATOM     19  C   UNL     1      49.704 158.774  30.669  0.00  0.00    -0.037 C 
ATOM     20  C   UNL     1      48.401 158.587  30.707  0.00  0.00    +0.034 C 
ATOM     21  C   UNL     1      47.446 159.688  30.664  0.00  0.00    +0.195 C 
ATOM     22  O   UNL     1      46.224 159.472  30.701  0.00  0.00    -0.287 OA
ATOM     23  C   UNL     1      48.041 161.020  30.577  0.00  0.00    +0.038 C 
ATOM     24  C   UNL     1      49.343 161.211  30.540  0.00  0.00    -0.019 C 
ATOM     25  C   UNL     1      50.297 160.113  30.583  0.00  0.00    +0.040 C 
ATOM     26  H   UNL     1      54.615 159.965  31.663  0.00  0.00    +0.126 HD
ENDROOT
BRANCH   1  27
ATOM     27  N   UNL     1      52.331 152.861  27.942  0.00  0.00    -0.168 NA
ATOM     28  H   UNL     1      52.034 152.033  28.459  0.00  0.00    +0.150 HD
BRANCH  27  29
ATOM     29  S   UNL     1      52.388 152.467  26.286  0.00  0.00    +0.114 S 
ATOM     30  O   UNL     1      51.533 151.224  26.086  0.00  0.00    -0.138 OA
ATOM     31  O   UNL     1      51.826 153.542  25.439  0.00  0.00    -0.138 OA
BRANCH  29  32
ATOM     32  N   UNL     1      53.987 152.021  25.780  0.00  0.00    -0.141 N 
ATOM     33  C   UNL     1      54.824 153.061  25.292  0.00  0.00    +0.418 C 
ATOM     34  O   UNL     1      54.431 154.268  25.225  0.00  0.00    -0.225 OA
ATOM     35  H   UNL     1      54.300 151.089  25.829  0.00  0.00    +0.181 HD
BRANCH  33  36
ATOM     36  O   UNL     1      56.122 152.793  24.863  0.00  0.00    -0.465 OA
ATOM     37  H   UNL     1      56.454 151.917  24.894  0.00  0.00    +0.297 HD
ENDBRANCH  33  36
ENDBRANCH  29  32
ENDBRANCH  27  29
ENDBRANCH   1  27
BRANCH  14  38
ATOM     38  O   UNL     1      54.300 162.365  32.066  0.00  0.00    -0.422 OA
BRANCH  38  39
ATOM     39  C   UNL     1      55.641 162.300  32.363  0.00  0.00    +0.416 C 
ATOM     40  O   UNL     1      56.353 161.549  31.634  0.00  0.00    -0.225 OA
ATOM     41  N   UNL     1      56.290 162.990  33.398  0.00  0.00    -0.219 N 
ATOM     42  H   UNL     1      55.748 163.578  33.972  0.00  0.00    +0.172 HD
BRANCH  41  43
ATOM     43  N   UNL     1      57.659 162.894  33.664  0.00  0.00    -0.252 NA
ATOM     44  H   UNL     1      58.091 162.255  32.996  0.00  0.00    +0.141 HD
ATOM     45  H   UNL     1      57.797 162.541  34.611  0.00  0.00    +0.141 HD
ENDBRANCH  41  43
ENDBRANCH  38  39
ENDBRANCH  14  38
TORSDOF 7
