REMARK  Name = =
REMARK  3 active torsions:
REMARK  status: ('A' for Active; 'I' for Inactive)
REMARK    1  A    between atoms: C_1  and  N_17
REMARK    2  A    between atoms: C_7  and  C_18
REMARK    3  A    between atoms: N_20  and  C_21
REMARK                            x       y       z     vdW  Elec       q    Type
REMARK                         _______ _______ _______ _____ _____    ______ ____
ROOT
ATOM      1  C   UNL     1     -16.708 -42.300  26.597  0.00  0.00    +0.086 C 
ATOM      2  C   UNL     1     -16.912 -41.908  25.269  0.00  0.00    +0.148 C 
ATOM      3  C   UNL     1     -18.079 -41.297  24.874  0.00  0.00    +0.025 C 
ATOM      4  C   UNL     1     -19.105 -41.039  25.758  0.00  0.00    -0.001 C 
ATOM      5  C   UNL     1     -18.895 -41.427  27.059  0.00  0.00    +0.001 C 
ATOM      6  C   UNL     1     -17.721 -42.045  27.467  0.00  0.00    +0.018 C 
ATOM      7  C   UNL     1     -17.907 -41.035  23.422  0.00  0.00    +0.145 C 
ATOM      8  C   UNL     1     -16.929 -42.111  23.021  0.00  0.00    +0.219 C 
ATOM      9  O   UNL     1     -16.045 -42.046  24.160  0.00  0.00    -0.474 OA
ENDROOT
BRANCH   1  17
ATOM     10  N   UNL     1     -13.791 -43.901  28.474  0.00  0.00    -0.214 N 
ATOM     11  C   UNL     1     -12.686 -44.361  27.669  0.00  0.00    +0.112 C 
ATOM     12  C   UNL     1     -11.831 -44.185  28.890  0.00  0.00    +0.108 C 
ATOM     13  C   UNL     1     -13.106 -44.345  29.626  0.00  0.00    +0.234 C 
ATOM     14  O   UNL     1     -13.406 -44.721  30.784  0.00  0.00    -0.274 OA
ATOM     15  C   UNL     1     -15.047 -43.267  28.250  0.00  0.00    +0.314 C 
ATOM     16  O   UNL     1     -15.762 -43.013  29.240  0.00  0.00    -0.252 OA
ATOM     17  N   UNL     1     -15.509 -42.920  26.975  0.00  0.00    -0.265 N 
ATOM     18  H   UNL     1     -14.902 -43.145  26.234  0.00  0.00    +0.157 HD
ENDBRANCH   1  17
BRANCH   7  19
ATOM     19  C   UNL     1     -19.135 -41.064  22.628  0.00  0.00    +0.234 C 
ATOM     20  O   UNL     1     -19.447 -42.168  22.115  0.00  0.00    -0.274 OA
ATOM     21  N   UNL     1     -19.935 -39.936  22.433  0.00  0.00    -0.284 N 
ATOM     22  H   UNL     1     -19.623 -39.104  22.857  0.00  0.00    +0.155 HD
BRANCH  21  23
ATOM     23  C   UNL     1     -21.141 -39.849  21.698  0.00  0.00    +0.050 C 
ATOM     24  C   UNL     1     -21.863 -40.959  21.347  0.00  0.00    +0.015 C 
ATOM     25  C   UNL     1     -23.033 -40.754  20.604  0.00  0.00    +0.001 C 
ATOM     26  C   UNL     1     -23.466 -39.508  20.227  0.00  0.00    +0.000 C 
ATOM     27  C   UNL     1     -22.741 -38.395  20.580  0.00  0.00    +0.001 C 
ATOM     28  C   UNL     1     -21.601 -38.578  21.302  0.00  0.00    +0.015 C 
ENDBRANCH  21  23
ENDBRANCH   7  19
TORSDOF 3
