REMARK  Name = =
REMARK  4 active torsions:
REMARK  status: ('A' for Active; 'I' for Inactive)
REMARK    1  A    between atoms: C_1  and  C_7
REMARK    2  A    between atoms: C_4  and  O_13
REMARK    3  A    between atoms: O_13  and  N_14
REMARK    4  A    between atoms: N_14  and  S_15
REMARK                            x       y       z     vdW  Elec       q    Type
REMARK                         _______ _______ _______ _____ _____    ______ ____
ROOT
ATOM      1  C   UNL     1     -10.439  -8.268  21.313  0.00  0.00    +0.005 C 
ATOM      2  C   UNL     1      -9.401  -9.124  21.597  0.00  0.00    +0.001 C 
ATOM      3  C   UNL     1      -9.127 -10.230  20.804  0.00  0.00    +0.039 C 
ATOM      4  C   UNL     1      -9.909 -10.489  19.700  0.00  0.00    +0.167 C 
ATOM      5  C   UNL     1     -10.945  -9.626  19.426  0.00  0.00    +0.039 C 
ATOM      6  C   UNL     1     -11.218  -8.513  20.227  0.00  0.00    +0.001 C 
ENDROOT
BRANCH   1   7
ATOM      7  C   UNL     1     -10.654  -7.113  22.217  0.00  0.00    +0.137 C 
ATOM      8  O   UNL     1     -11.200  -7.604  23.374  0.00  0.00    -0.352 OA
ATOM      9  C   UNL     1     -11.248  -6.762  24.433  0.00  0.00    +0.143 C 
ATOM     10  C   UNL     1     -10.488  -5.483  24.286  0.00  0.00    +0.032 C 
ATOM     11  C   UNL     1      -9.103  -5.881  23.757  0.00  0.00    +0.005 C 
ATOM     12  C   UNL     1      -9.316  -6.449  22.392  0.00  0.00    +0.034 C 
ENDBRANCH   1   7
BRANCH   4  13
ATOM     13  O   UNL     1      -9.675 -11.588  18.869  0.00  0.00    -0.385 OA
BRANCH  13  14
ATOM     14  N   UNL     1     -10.309 -12.793  19.039  0.00  0.00    -0.027 NA
ATOM     15  H   UNL     1     -11.155 -12.814  18.470  0.00  0.00    +0.195 HD
BRANCH  14  16
ATOM     16  S   UNL     1      -9.262 -14.070  18.556  0.00  0.00    +0.050 S 
ATOM     17  O   UNL     1      -8.393 -14.502  19.724  0.00  0.00    -0.158 OA
ATOM     18  O   UNL     1     -10.081 -15.218  18.058  0.00  0.00    -0.158 OA
ATOM     19  H   UNL     1      -8.448 -13.638  17.556  0.00  0.00    +0.233 HD
ENDBRANCH  14  16
ENDBRANCH  13  14
ENDBRANCH   4  13
TORSDOF 4
