MODEL 1
REMARK VINA RESULT:    -7.674      0.000      0.000
REMARK INTER + INTRA:          -9.217
REMARK INTER:                  -9.468
REMARK INTRA:                   0.252
REMARK UNBOUND:                 0.252
REMARK  Name = =
REMARK  4 active torsions:
REMARK  status: ('A' for Active; 'I' for Inactive)
REMARK    1  A    between atoms: N_1  and  C_18
REMARK    2  A    between atoms: C_2  and  C_23
REMARK    3  A    between atoms: C_4  and  C_5
REMARK    4  A    between atoms: C_13  and  C_15
REMARK                            x       y       z     vdW  Elec       q    Type
REMARK                         _______ _______ _______ _____ _____    ______ ____
ROOT
ATOM      1  N   UNL     1      53.931 161.922  41.687  0.00  0.00    -0.239 NA
ATOM      2  C   UNL     1      55.227 162.248  42.200  0.00  0.00    +0.086 C 
ATOM      3  C   UNL     1      54.941 163.717  41.881  0.00  0.00    +0.037 C 
ATOM      4  C   UNL     1      53.509 163.286  41.922  0.00  0.00    +0.067 C 
ENDROOT
BRANCH   4   5
ATOM      5  C   UNL     1      52.647 163.869  40.813  0.00  0.00    +0.044 C 
ATOM      6  C   UNL     1      51.319 164.272  41.369  0.00  0.00    +0.014 C 
ATOM      7  C   UNL     1      51.362 165.469  42.098  0.00  0.00    +0.135 C 
ATOM      8  O   UNL     1      52.577 166.122  42.219  0.00  0.00    -0.476 OA
ATOM      9  C   UNL     1      53.376 166.289  41.068  0.00  0.00    +0.206 C 
ATOM     10  C   UNL     1      53.380 165.062  40.247  0.00  0.00    +0.053 C 
ATOM     11  C   UNL     1      50.169 165.889  42.638  0.00  0.00    +0.037 C 
ATOM     12  C   UNL     1      48.985 165.164  42.468  0.00  0.00    +0.013 C 
ATOM     13  C   UNL     1      48.971 163.990  41.744  0.00  0.00    +0.068 C 
ATOM     14  C   UNL     1      50.160 163.559  41.198  0.00  0.00    +0.009 C 
BRANCH  13  15
ATOM     15  C   UNL     1      47.792 163.204  41.537  0.00  0.00    +0.100 C 
ATOM     16  N   UNL     1      46.827 162.580  41.373  0.00  0.00    -0.191 NA
ENDBRANCH  13  15
ENDBRANCH   4   5
BRANCH   1  18
ATOM     17  O   UNL     1      51.872 160.866  42.306  0.00  0.00    -0.436 OA
ATOM     18  C   UNL     1      53.263 160.948  42.521  0.00  0.00    +0.232 C 
ATOM     19  C   UNL     1      53.686 159.527  42.296  0.00  0.00    +0.073 C 
ATOM     20  C   UNL     1      52.568 158.774  43.034  0.00  0.00    +0.115 C 
ATOM     21  C   UNL     1      51.390 159.614  42.647  0.00  0.00    +0.318 C 
ATOM     22  O   UNL     1      50.175 159.242  42.638  0.00  0.00    -0.250 OA
ENDBRANCH   1  18
BRANCH   2  23
ATOM     23  C   UNL     1      56.404 161.852  41.391  0.00  0.00    +0.012 C 
ATOM     24  C   UNL     1      56.609 160.595  40.889  0.00  0.00    +0.000 C 
ATOM     25  C   UNL     1      57.743 160.282  40.142  0.00  0.00    +0.020 C 
ATOM     26  C   UNL     1      58.660 161.265  39.915  0.00  0.00    +0.099 C 
ATOM     27  N   UNL     1      58.452 162.510  40.413  0.00  0.00    -0.243 NA
ATOM     28  C   UNL     1      57.358 162.815  41.136  0.00  0.00    +0.096 C 
ENDBRANCH   2  23
TORSDOF 4
ENDMDL
