REMARK  Name = =
REMARK  4 active torsions:
REMARK  status: ('A' for Active; 'I' for Inactive)
REMARK    1  A    between atoms: N_1  and  C_18
REMARK    2  A    between atoms: C_2  and  C_23
REMARK    3  A    between atoms: C_4  and  C_5
REMARK    4  A    between atoms: C_13  and  C_15
REMARK                            x       y       z     vdW  Elec       q    Type
REMARK                         _______ _______ _______ _____ _____    ______ ____
ROOT
ATOM      1  N   UNL     1      52.168 156.733  27.489  0.00  0.00    -0.239 NA
ATOM      2  C   UNL     1      52.306 157.205  28.834  0.00  0.00    +0.086 C 
ATOM      3  C   UNL     1      52.354 155.748  29.299  0.00  0.00    +0.037 C 
ATOM      4  C   UNL     1      52.757 155.472  27.885  0.00  0.00    +0.067 C 
ENDROOT
BRANCH   4   5
ATOM      5  C   UNL     1      52.088 154.253  27.269  0.00  0.00    +0.044 C 
ATOM      6  C   UNL     1      53.063 153.533  26.394  0.00  0.00    +0.014 C 
ATOM      7  C   UNL     1      54.000 152.777  27.112  0.00  0.00    +0.135 C 
ATOM      8  O   UNL     1      53.924 152.776  28.495  0.00  0.00    -0.476 OA
ATOM      9  C   UNL     1      52.665 152.597  29.106  0.00  0.00    +0.206 C 
ATOM     10  C   UNL     1      51.622 153.369  28.401  0.00  0.00    +0.053 C 
ATOM     11  C   UNL     1      54.927 152.094  26.360  0.00  0.00    +0.037 C 
ATOM     12  C   UNL     1      54.932 152.152  24.962  0.00  0.00    +0.013 C 
ATOM     13  C   UNL     1      53.997 152.903  24.281  0.00  0.00    +0.068 C 
ATOM     14  C   UNL     1      53.063 153.592  25.024  0.00  0.00    +0.009 C 
BRANCH  13  15
ATOM     15  C   UNL     1      53.953 153.004  22.853  0.00  0.00    +0.100 C 
ATOM     16  N   UNL     1      53.902 153.094  21.697  0.00  0.00    -0.191 NA
ENDBRANCH  13  15
ENDBRANCH   4   5
BRANCH   1  18
ATOM     17  O   UNL     1      54.319 157.662  26.993  0.00  0.00    -0.436 OA
ATOM     18  C   UNL     1      52.982 157.501  26.574  0.00  0.00    +0.232 C 
ATOM     19  C   UNL     1      53.163 156.885  25.219  0.00  0.00    +0.073 C 
ATOM     20  C   UNL     1      54.323 157.731  24.671  0.00  0.00    +0.115 C 
ATOM     21  C   UNL     1      55.157 157.860  25.909  0.00  0.00    +0.318 C 
ATOM     22  O   UNL     1      56.403 158.107  25.950  0.00  0.00    -0.250 OA
ENDBRANCH   1  18
BRANCH   2  23
ATOM     23  C   UNL     1      51.118 157.822  29.469  0.00  0.00    +0.012 C 
ATOM     24  C   UNL     1      51.041 159.133  29.855  0.00  0.00    +0.000 C 
ATOM     25  C   UNL     1      49.896 159.652  30.457  0.00  0.00    +0.020 C 
ATOM     26  C   UNL     1      48.837 158.818  30.659  0.00  0.00    +0.099 C 
ATOM     27  N   UNL     1      48.917 157.519  30.275  0.00  0.00    -0.243 NA
ATOM     28  C   UNL     1      50.022 157.015  29.693  0.00  0.00    +0.096 C 
ENDBRANCH   2  23
TORSDOF 4
