REMARK  Name = =
REMARK  3 active torsions:
REMARK  status: ('A' for Active; 'I' for Inactive)
REMARK    1  A    between atoms: N_1  and  C_7
REMARK    2  A    between atoms: C_2  and  N_15
REMARK    3  A    between atoms: C_10  and  O_14
REMARK                            x       y       z     vdW  Elec       q    Type
REMARK                         _______ _______ _______ _____ _____    ______ ____
ROOT
ATOM      1  N   UNL     1      53.642 154.368  25.961  0.00  0.00    -0.287 N 
ATOM      2  C   UNL     1      54.493 153.206  26.028  0.00  0.00    +0.184 C 
ATOM      3  C   UNL     1      53.830 152.131  25.229  0.00  0.00    +0.183 C 
ATOM      4  O   UNL     1      53.199 152.668  24.108  0.00  0.00    -0.348 OA
ATOM      5  C   UNL     1      53.792 153.844  23.654  0.00  0.00    +0.164 C 
ATOM      6  C   UNL     1      53.622 155.001  24.621  0.00  0.00    +0.124 C 
ENDROOT
BRANCH   1   7
ATOM      7  C   UNL     1      52.845 154.941  26.935  0.00  0.00    +0.077 C 
ATOM      8  C   UNL     1      51.669 154.346  27.322  0.00  0.00    +0.156 C 
ATOM      9  C   UNL     1      50.856 154.894  28.315  0.00  0.00    +0.067 C 
ATOM     10  C   UNL     1      51.213 156.063  28.946  0.00  0.00    +0.136 C 
ATOM     11  C   UNL     1      52.391 156.666  28.563  0.00  0.00    +0.038 C 
ATOM     12  C   UNL     1      53.199 156.129  27.582  0.00  0.00    +0.020 C 
ATOM     13  F   UNL     1      51.241 153.222  26.748  0.00  0.00    -0.203 F 
BRANCH  10  14
ATOM     14  O   UNL     1      50.390 156.603  29.940  0.00  0.00    -0.505 OA
ATOM     15  H   UNL     1      49.595 156.168  30.177  0.00  0.00    +0.292 HD
ENDBRANCH  10  14
ENDBRANCH   1   7
BRANCH   2  16
ATOM     16  N   UNL     1      54.952 152.808  27.296  0.00  0.00    -0.245 N 
ATOM     17  C   UNL     1      56.340 152.424  27.604  0.00  0.00    +0.118 C 
ATOM     18  C   UNL     1      56.438 152.331  29.095  0.00  0.00    +0.112 C 
ATOM     19  N   UNL     1      55.179 152.858  29.562  0.00  0.00    -0.287 N 
ATOM     20  C   UNL     1      54.250 152.696  28.508  0.00  0.00    +0.305 C 
ATOM     21  O   UNL     1      53.030 152.492  28.649  0.00  0.00    -0.253 OA
ATOM     22  H   UNL     1      55.001 153.255  30.445  0.00  0.00    +0.151 HD
ENDBRANCH   2  16
TORSDOF 3
