REMARK  Name = =
REMARK  6 active torsions:
REMARK  status: ('A' for Active; 'I' for Inactive)
REMARK    1  A    between atoms: N_1  and  C_19
REMARK    2  A    between atoms: C_2  and  N_27
REMARK    3  A    between atoms: C_5  and  C_7
REMARK    4  A    between atoms: C_14  and  O_18
REMARK    5  A    between atoms: C_15  and  O_17
REMARK    6  A    between atoms: C_22  and  O_26
REMARK                            x       y       z     vdW  Elec       q    Type
REMARK                         _______ _______ _______ _____ _____    ______ ____
ROOT
ATOM      1  N   UNL     1      50.997 158.470  29.630  0.00  0.00    -0.287 N 
ATOM      2  C   UNL     1      49.669 157.943  29.598  0.00  0.00    +0.184 C 
ATOM      3  C   UNL     1      49.758 156.493  30.085  0.00  0.00    +0.183 C 
ATOM      4  O   UNL     1      50.944 156.216  30.709  0.00  0.00    -0.349 OA
ATOM      5  C   UNL     1      52.085 156.395  29.982  0.00  0.00    +0.153 C 
ATOM      6  C   UNL     1      52.036 157.591  29.062  0.00  0.00    +0.124 C 
ENDROOT
BRANCH   5   7
ATOM      7  C   UNL     1      52.547 155.130  29.252  0.00  0.00    +0.106 C 
ATOM      8  N   UNL     1      51.715 154.002  29.522  0.00  0.00    -0.293 NA
ATOM      9  C   UNL     1      51.572 153.063  28.443  0.00  0.00    +0.074 C 
ATOM     10  C   UNL     1      50.960 153.779  27.242  0.00  0.00    +0.043 C 
ATOM     11  C   UNL     1      51.939 154.806  26.836  0.00  0.00    -0.020 C 
ATOM     12  C   UNL     1      52.684 155.437  27.795  0.00  0.00    -0.006 C 
ATOM     13  C   UNL     1      53.612 156.406  27.443  0.00  0.00    +0.037 C 
ATOM     14  C   UNL     1      53.787 156.735  26.134  0.00  0.00    +0.167 C 
ATOM     15  C   UNL     1      53.051 156.115  25.161  0.00  0.00    +0.167 C 
ATOM     16  C   UNL     1      52.122 155.145  25.524  0.00  0.00    +0.035 C 
ATOM     17  H   UNL     1      50.786 154.348  29.762  0.00  0.00    +0.124 HD
BRANCH  15  18
ATOM     18  O   UNL     1      53.219 156.439  23.842  0.00  0.00    -0.503 OA
ATOM     19  H   UNL     1      52.709 156.007  23.185  0.00  0.00    +0.292 HD
ENDBRANCH  15  18
BRANCH  14  20
ATOM     20  O   UNL     1      54.709 157.697  25.792  0.00  0.00    -0.503 OA
ATOM     21  H   UNL     1      55.213 158.121  26.459  0.00  0.00    +0.292 HD
ENDBRANCH  14  20
ENDBRANCH   5   7
BRANCH   1  22
ATOM     22  C   UNL     1      51.430 159.701  30.124  0.00  0.00    +0.077 C 
ATOM     23  C   UNL     1      50.748 160.854  29.832  0.00  0.00    +0.156 C 
ATOM     24  C   UNL     1      51.173 162.073  30.324  0.00  0.00    +0.067 C 
ATOM     25  C   UNL     1      52.294 162.144  31.116  0.00  0.00    +0.136 C 
ATOM     26  C   UNL     1      52.982 160.990  31.411  0.00  0.00    +0.038 C 
ATOM     27  C   UNL     1      52.550 159.780  30.916  0.00  0.00    +0.020 C 
ATOM     28  F   UNL     1      49.633 160.857  29.052  0.00  0.00    -0.203 F 
BRANCH  25  29
ATOM     29  O   UNL     1      52.697 163.391  31.597  0.00  0.00    -0.505 OA
ATOM     30  H   UNL     1      52.206 164.159  31.378  0.00  0.00    +0.292 HD
ENDBRANCH  25  29
ENDBRANCH   1  22
BRANCH   2  31
ATOM     31  N   UNL     1      48.684 158.682  30.301  0.00  0.00    -0.245 N 
ATOM     32  C   UNL     1      47.476 159.250  29.743  0.00  0.00    +0.118 C 
ATOM     33  C   UNL     1      46.578 159.604  30.912  0.00  0.00    +0.112 C 
ATOM     34  N   UNL     1      47.542 159.848  31.964  0.00  0.00    -0.287 N 
ATOM     35  C   UNL     1      48.657 159.015  31.678  0.00  0.00    +0.305 C 
ATOM     36  O   UNL     1      49.480 158.651  32.556  0.00  0.00    -0.253 OA
ATOM     37  H   UNL     1      47.445 160.466  32.724  0.00  0.00    +0.151 HD
ENDBRANCH   2  31
TORSDOF 6
