MODEL 1
REMARK VINA RESULT:    -6.806      0.000      0.000
REMARK INTER + INTRA:         -10.075
REMARK INTER:                  -8.994
REMARK INTRA:                  -1.081
REMARK UNBOUND:                -1.081
REMARK  Name = =
REMARK  6 active torsions:
REMARK  status: ('A' for Active; 'I' for Inactive)
REMARK    1  A    between atoms: C_1  and  C_15
REMARK    2  A    between atoms: C_1  and  C_22
REMARK    3  A    between atoms: C_17  and  S_21
REMARK    4  A    between atoms: C_22  and  C_27
REMARK    5  A    between atoms: C_29  and  N_33
REMARK    6  A    between atoms: N_33  and  S_34
REMARK                            x       y       z     vdW  Elec       q    Type
REMARK                         _______ _______ _______ _____ _____    ______ ____
ROOT
ATOM      1  C   UNL     1      62.615 166.165  36.671  0.00  0.00    +0.067 C 
ATOM      2  C   UNL     1      63.105 164.943  35.900  0.00  0.00    +0.153 C 
ATOM      3  O   UNL     1      63.087 165.206  34.510  0.00  0.00    -0.312 OA
ATOM      4  C   UNL     1      64.251 165.945  34.254  0.00  0.00    +0.296 C 
ATOM      5  O   UNL     1      65.301 165.088  34.593  0.00  0.00    -0.310 OA
ATOM      6  C   UNL     1      66.112 164.940  33.495  0.00  0.00    +0.177 C 
ATOM      7  C   UNL     1      65.741 166.159  32.675  0.00  0.00    +0.152 C 
ATOM      8  O   UNL     1      64.396 166.280  32.929  0.00  0.00    -0.312 OA
ATOM      9  C   UNL     1      66.116 165.968  31.240  0.00  0.00    +0.064 C 
ATOM     10  C   UNL     1      65.701 164.642  30.677  0.00  0.00    +0.145 C 
ATOM     11  O   UNL     1      65.109 163.805  31.616  0.00  0.00    -0.351 OA
ATOM     12  C   UNL     1      65.960 163.676  32.728  0.00  0.00    +0.174 C 
ATOM     13  C   UNL     1      64.276 167.142  35.198  0.00  0.00    +0.089 C 
ATOM     14  C   UNL     1      62.857 167.325  35.773  0.00  0.00    +0.016 C 
ENDROOT
BRANCH   1  15
ATOM     15  C   UNL     1      63.424 166.191  37.925  0.00  0.00    +0.061 C 
ATOM     16  C   UNL     1      63.961 165.039  38.472  0.00  0.00    +0.021 C 
ATOM     17  C   UNL     1      64.744 165.075  39.616  0.00  0.00    +0.024 C 
ATOM     18  C   UNL     1      64.991 166.276  40.223  0.00  0.00    +0.027 C 
ATOM     19  C   UNL     1      64.429 167.409  39.642  0.00  0.00    +0.099 C 
ATOM     20  N   UNL     1      63.680 167.353  38.541  0.00  0.00    -0.248 NA
BRANCH  17  21
ATOM     21  S   UNL     1      65.456 163.577  40.305  0.00  0.00    -0.141 S 
ATOM     22  H   UNL     1      64.927 162.493  39.677  0.00  0.00    +0.107 HD
ENDBRANCH  17  21
ENDBRANCH   1  15
BRANCH   1  23
ATOM     23  C   UNL     1      61.178 166.069  37.090  0.00  0.00    +0.026 C 
ATOM     24  C   UNL     1      60.983 166.250  38.582  0.00  0.00    +0.004 C 
ATOM     25  C   UNL     1      60.221 167.517  38.826  0.00  0.00    +0.000 C 
ATOM     26  C   UNL     1      60.209 168.268  37.543  0.00  0.00    +0.000 C 
ATOM     27  C   UNL     1      60.395 167.221  36.490  0.00  0.00    +0.004 C 
BRANCH  23  28
ATOM     28  C   UNL     1      60.492 164.817  36.688  0.00  0.00    -0.021 C 
ATOM     29  C   UNL     1      60.730 163.568  37.270  0.00  0.00    +0.012 C 
ATOM     30  C   UNL     1      60.096 162.433  36.807  0.00  0.00    +0.064 C 
ATOM     31  C   UNL     1      59.208 162.480  35.759  0.00  0.00    +0.016 C 
ATOM     32  C   UNL     1      58.948 163.691  35.163  0.00  0.00    +0.001 C 
ATOM     33  C   UNL     1      59.591 164.823  35.638  0.00  0.00    -0.004 C 
BRANCH  30  34
ATOM     34  N   UNL     1      60.371 161.181  37.414  0.00  0.00    -0.222 N 
ATOM     35  H   UNL     1      61.202 160.704  37.188  0.00  0.00    +0.173 HD
BRANCH  34  36
ATOM     36  S   UNL     1      59.259 160.481  38.549  0.00  0.00    +0.033 S 
ATOM     37  O   UNL     1      58.119 159.882  37.793  0.00  0.00    -0.158 OA
ATOM     38  O   UNL     1      59.992 159.318  39.208  0.00  0.00    -0.158 OA
ATOM     39  H   UNL     1      58.821 161.411  39.439  0.00  0.00    +0.233 HD
ENDBRANCH  34  36
ENDBRANCH  30  34
ENDBRANCH  23  28
ENDBRANCH   1  23
TORSDOF 6
ENDMDL
