REMARK  Name = =
REMARK  2 active torsions:
REMARK  status: ('A' for Active; 'I' for Inactive)
REMARK    1  A    between atoms: C_7  and  C_8
REMARK    2  A    between atoms: C_11  and  O_14
REMARK                            x       y       z     vdW  Elec       q    Type
REMARK                         _______ _______ _______ _____ _____    ______ ____
ROOT
ATOM      1  N   UNL     1      -3.228  -4.901  32.027  0.00  0.00    -0.301 N 
ATOM      2  C   UNL     1      -4.112  -4.974  33.120  0.00  0.00    +0.223 C 
ATOM      3  O   UNL     1      -4.661  -3.973  33.643  0.00  0.00    -0.275 OA
ATOM      4  C   UNL     1      -4.421  -6.298  33.697  0.00  0.00    +0.085 C 
ATOM      5  C   UNL     1      -4.096  -7.465  32.850  0.00  0.00    +0.012 C 
ATOM      6  C   UNL     1      -3.898  -7.192  31.406  0.00  0.00    +0.026 C 
ATOM      7  C   UNL     1      -3.192  -5.939  31.061  0.00  0.00    +0.112 C 
ATOM      8  H   UNL     1      -2.631  -4.124  31.932  0.00  0.00    +0.150 HD
ENDROOT
BRANCH   7   9
ATOM      9  C   UNL     1      -1.759  -6.173  30.662  0.00  0.00    +0.077 C 
ATOM     10  C   UNL     1      -0.879  -6.774  31.543  0.00  0.00    +0.019 C 
ATOM     11  C   UNL     1       0.456  -7.006  31.205  0.00  0.00    +0.039 C 
ATOM     12  C   UNL     1       0.890  -6.620  29.957  0.00  0.00    +0.153 C 
ATOM     13  C   UNL     1       0.000  -6.023  29.092  0.00  0.00    +0.135 C 
ATOM     14  N   UNL     1      -1.298  -5.810  29.454  0.00  0.00    -0.243 NA
BRANCH  12  15
ATOM     15  O   UNL     1       2.194  -6.807  29.531  0.00  0.00    -0.504 OA
ATOM     16  H   UNL     1       2.819  -7.211  30.100  0.00  0.00    +0.292 HD
ENDBRANCH  12  15
ENDBRANCH   7   9
TORSDOF 2
