REMARK  Name = =
REMARK  1 active torsions:
REMARK  status: ('A' for Active; 'I' for Inactive)
REMARK    1  A    between atoms: C_3  and  O_7
REMARK                            x       y       z     vdW  Elec       q    Type
REMARK                         _______ _______ _______ _____ _____    ______ ____
ROOT
ATOM      1  C   UNL     1      51.034 155.186  29.087  0.00  0.00    +0.102 C 
ATOM      2  C   UNL     1      51.519 156.394  29.541  0.00  0.00    +0.057 C 
ATOM      3  C   UNL     1      52.426 157.050  28.733  0.00  0.00    +0.137 C 
ATOM      4  C   UNL     1      52.806 156.491  27.529  0.00  0.00    +0.057 C 
ATOM      5  C   UNL     1      52.305 155.280  27.098  0.00  0.00    +0.102 C 
ATOM      6  N   UNL     1      51.424 154.669  27.909  0.00  0.00    -0.242 NA
ENDROOT
BRANCH   3   7
ATOM      7  O   UNL     1      52.924 158.267  29.177  0.00  0.00    -0.505 OA
ATOM      8  H   UNL     1      52.643 158.616  30.000  0.00  0.00    +0.292 HD
ENDBRANCH   3   7
TORSDOF 1
