REMARK  Name = =
REMARK  2 active torsions:
REMARK  status: ('A' for Active; 'I' for Inactive)
REMARK    1  A    between atoms: C_1  and  C_13
REMARK    2  A    between atoms: C_4  and  N_8
REMARK                            x       y       z     vdW  Elec       q    Type
REMARK                         _______ _______ _______ _____ _____    ______ ____
ROOT
ATOM      1  C   UNL     1      -4.153  -3.561  32.147  0.00  0.00    +0.021 C 
ATOM      2  C   UNL     1      -4.335  -4.958  32.706  0.00  0.00    +0.006 C 
ATOM      3  C   UNL     1      -2.975  -5.621  32.666  0.00  0.00    +0.023 C 
ATOM      4  C   UNL     1      -2.444  -5.717  31.275  0.00  0.00    +0.102 C 
ATOM      5  C   UNL     1      -3.383  -5.060  30.259  0.00  0.00    +0.044 C 
ATOM      6  C   UNL     1      -3.691  -3.693  30.763  0.00  0.00    -0.043 C 
ATOM      7  C   UNL     1      -3.529  -2.675  29.926  0.00  0.00    -0.009 C 
ENDROOT
BRANCH   4   8
ATOM      8  N   UNL     1      -2.290  -7.121  30.939  0.00  0.00    -0.192 N 
ATOM      9  N   UNL     1      -2.910  -8.167  31.441  0.00  0.00    -0.154 NA
ATOM     10  C   UNL     1      -2.474  -9.308  30.850  0.00  0.00    +0.218 C 
ATOM     11  N   UNL     1      -1.555  -8.956  29.953  0.00  0.00    -0.203 NA
ATOM     12  C   UNL     1      -1.439  -7.614  30.005  0.00  0.00    +0.186 C 
ENDBRANCH   4   8
BRANCH   1  13
ATOM     13  C   UNL     1      -5.449  -2.855  32.276  0.00  0.00    +0.036 C 
ATOM     14  C   UNL     1      -6.318  -2.447  31.387  0.00  0.00    +0.035 C 
ATOM     15  C   UNL     1      -7.431  -1.800  32.125  0.00  0.00    +0.142 C 
ATOM     16  O   UNL     1      -6.831  -1.368  33.284  0.00  0.00    -0.354 OA
ATOM     17  C   UNL     1      -6.000  -2.464  33.626  0.00  0.00    +0.142 C 
ENDBRANCH   1  13
TORSDOF 2
