REMARK  Name = =
REMARK  4 active torsions:
REMARK  status: ('A' for Active; 'I' for Inactive)
REMARK    1  A    between atoms: C_1  and  C_9
REMARK    2  A    between atoms: C_1  and  C_20
REMARK    3  A    between atoms: C_4  and  N_15
REMARK    4  A    between atoms: C_11  and  O_14
REMARK                            x       y       z     vdW  Elec       q    Type
REMARK                         _______ _______ _______ _____ _____    ______ ____
ROOT
ATOM      1  C   UNL     1       4.725  -3.103  23.513  0.00  0.00    +0.037 C 
ATOM      2  C   UNL     1       4.924  -2.806  22.019  0.00  0.00    +0.010 C 
ATOM      3  C   UNL     1       3.975  -1.755  21.525  0.00  0.00    +0.023 C 
ATOM      4  C   UNL     1       2.532  -2.206  21.605  0.00  0.00    +0.102 C 
ATOM      5  C   UNL     1       2.364  -3.245  22.703  0.00  0.00    +0.044 C 
ATOM      6  C   UNL     1       3.315  -2.837  23.793  0.00  0.00    -0.039 C 
ATOM      7  C   UNL     1       2.811  -2.288  24.874  0.00  0.00    -0.009 C 
ENDROOT
BRANCH   1   9
ATOM      8  C   UNL     1       4.207  -5.371  24.453  0.00  0.00    -0.004 C 
ATOM      9  C   UNL     1       5.001  -4.555  23.670  0.00  0.00    -0.016 C 
ATOM     10  C   UNL     1       6.046  -5.122  23.011  0.00  0.00    +0.033 C 
ATOM     11  C   UNL     1       6.307  -6.493  23.124  0.00  0.00    +0.133 C 
ATOM     12  C   UNL     1       5.503  -7.267  23.905  0.00  0.00    +0.037 C 
ATOM     13  C   UNL     1       4.439  -6.718  24.582  0.00  0.00    +0.003 C 
BRANCH  11  14
ATOM     14  O   UNL     1       7.374  -7.007  22.436  0.00  0.00    -0.506 OA
ATOM     15  H   UNL     1       7.906  -6.445  21.908  0.00  0.00    +0.292 HD
ENDBRANCH  11  14
ENDBRANCH   1   9
BRANCH   4  16
ATOM     16  N   UNL     1       2.082  -2.715  20.328  0.00  0.00    -0.192 N 
ATOM     17  N   UNL     1       2.338  -2.268  19.106  0.00  0.00    -0.154 NA
ATOM     18  C   UNL     1       1.733  -3.015  18.185  0.00  0.00    +0.218 C 
ATOM     19  N   UNL     1       1.065  -3.978  18.883  0.00  0.00    -0.203 NA
ATOM     20  C   UNL     1       1.283  -3.790  20.199  0.00  0.00    +0.186 C 
ENDBRANCH   4  16
BRANCH   1  21
ATOM     21  C   UNL     1       5.719  -2.346  24.270  0.00  0.00    +0.039 C 
ATOM     22  C   UNL     1       5.986  -1.043  24.051  0.00  0.00    +0.035 C 
ATOM     23  C   UNL     1       7.047  -0.614  25.007  0.00  0.00    +0.142 C 
ATOM     24  O   UNL     1       6.839  -1.496  26.054  0.00  0.00    -0.354 OA
ATOM     25  C   UNL     1       6.670  -2.715  25.349  0.00  0.00    +0.143 C 
ENDBRANCH   1  21
TORSDOF 4
