MODEL 1
REMARK VINA RESULT:    -7.255      0.000      0.000
REMARK INTER + INTRA:          -8.663
REMARK INTER:                  -8.104
REMARK INTRA:                  -0.560
REMARK UNBOUND:                -0.560
REMARK  Name = =
REMARK  2 active torsions:
REMARK  status: ('A' for Active; 'I' for Inactive)
REMARK    1  A    between atoms: N_1  and  N_7
REMARK    2  A    between atoms: C_2  and  N_18
REMARK                            x       y       z     vdW  Elec       q    Type
REMARK                         _______ _______ _______ _____ _____    ______ ____
ROOT
ATOM      1  N   UNL     1      52.339 167.194  41.475  0.00  0.00    -0.198 NA
ATOM      2  C   UNL     1      53.455 166.786  40.686  0.00  0.00    +0.171 C 
ATOM      3  C   UNL     1      54.489 167.828  40.452  0.00  0.00    +0.108 C 
ATOM      4  N   UNL     1      53.810 169.014  39.921  0.00  0.00    -0.294 NA
ATOM      5  C   UNL     1      52.990 169.499  41.042  0.00  0.00    +0.088 C 
ATOM      6  C   UNL     1      51.880 168.526  41.231  0.00  0.00    +0.108 C 
ATOM      7  H   UNL     1      53.222 168.767  39.125  0.00  0.00    +0.123 HD
ENDROOT
BRANCH   1   8
ATOM      8  N   UNL     1      51.366 166.233  41.414  0.00  0.00    -0.216 NA
ATOM      9  C   UNL     1      50.928 165.698  42.648  0.00  0.00    +0.093 C 
ATOM     10  C   UNL     1      50.331 164.313  42.378  0.00  0.00    +0.045 C 
ATOM     11  C   UNL     1      48.885 164.474  42.021  0.00  0.00    -0.025 C 
ATOM     12  C   UNL     1      48.328 165.556  41.374  0.00  0.00    -0.025 C 
ATOM     13  C   UNL     1      46.993 165.544  41.127  0.00  0.00    -0.005 C 
ATOM     14  C   UNL     1      46.166 164.489  41.496  0.00  0.00    -0.000 C 
ATOM     15  C   UNL     1      46.738 163.427  42.136  0.00  0.00    -0.000 C 
ATOM     16  C   UNL     1      48.099 163.410  42.405  0.00  0.00    -0.005 C 
ATOM     17  C   UNL     1      49.030 166.793  40.890  0.00  0.00    +0.045 C 
ATOM     18  C   UNL     1      50.399 166.367  40.393  0.00  0.00    +0.093 C 
ENDBRANCH   1   8
BRANCH   2  19
ATOM     19  N   UNL     1      54.045 165.585  41.269  0.00  0.00    -0.223 N 
ATOM     20  C   UNL     1      54.678 165.589  42.456  0.00  0.00    +0.171 C 
ATOM     21  N   UNL     1      55.217 164.460  42.978  0.00  0.00    -0.226 NA
ATOM     22  C   UNL     1      55.150 163.271  42.339  0.00  0.00    +0.105 C 
ATOM     23  C   UNL     1      54.497 163.266  41.112  0.00  0.00    +0.079 C 
ATOM     24  C   UNL     1      53.950 164.422  40.588  0.00  0.00    +0.257 C 
ATOM     25  O   UNL     1      53.358 164.418  39.477  0.00  0.00    -0.269 OA
ENDBRANCH   2  19
TORSDOF 2
ENDMDL
