REMARK  Name = =
REMARK  2 active torsions:
REMARK  status: ('A' for Active; 'I' for Inactive)
REMARK    1  A    between atoms: N_1  and  N_7
REMARK    2  A    between atoms: C_2  and  N_18
REMARK                            x       y       z     vdW  Elec       q    Type
REMARK                         _______ _______ _______ _____ _____    ______ ____
ROOT
ATOM      1  N   UNL     1      52.974 151.491  25.541  0.00  0.00    -0.198 NA
ATOM      2  C   UNL     1      54.394 151.540  25.420  0.00  0.00    +0.171 C 
ATOM      3  C   UNL     1      55.017 150.388  24.718  0.00  0.00    +0.108 C 
ATOM      4  N   UNL     1      54.535 149.163  25.364  0.00  0.00    -0.294 NA
ATOM      5  C   UNL     1      53.103 149.114  25.034  0.00  0.00    +0.088 C 
ATOM      6  C   UNL     1      52.433 150.194  25.808  0.00  0.00    +0.108 C 
ATOM      7  H   UNL     1      54.671 149.210  26.374  0.00  0.00    +0.123 HD
ENDROOT
BRANCH   1   8
ATOM      8  N   UNL     1      52.558 152.472  26.400  0.00  0.00    -0.216 NA
ATOM      9  C   UNL     1      53.386 152.727  27.518  0.00  0.00    +0.093 C 
ATOM     10  C   UNL     1      52.524 153.371  28.609  0.00  0.00    +0.045 C 
ATOM     11  C   UNL     1      52.497 154.853  28.387  0.00  0.00    -0.025 C 
ATOM     12  C   UNL     1      52.579 155.489  27.167  0.00  0.00    -0.025 C 
ATOM     13  C   UNL     1      52.541 156.846  27.142  0.00  0.00    -0.005 C 
ATOM     14  C   UNL     1      52.421 157.619  28.292  0.00  0.00    -0.000 C 
ATOM     15  C   UNL     1      52.341 156.969  29.490  0.00  0.00    -0.000 C 
ATOM     16  C   UNL     1      52.379 155.583  29.549  0.00  0.00    -0.005 C 
ATOM     17  C   UNL     1      52.712 154.854  25.812  0.00  0.00    +0.045 C 
ATOM     18  C   UNL     1      51.890 153.579  25.831  0.00  0.00    +0.093 C 
ENDBRANCH   1   8
BRANCH   2  19
ATOM     19  N   UNL     1      54.782 152.803  24.800  0.00  0.00    -0.223 N 
ATOM     20  C   UNL     1      55.579 153.698  25.412  0.00  0.00    +0.171 C 
ATOM     21  N   UNL     1      55.927 154.865  24.816  0.00  0.00    -0.226 NA
ATOM     22  C   UNL     1      55.495 155.195  23.578  0.00  0.00    +0.105 C 
ATOM     23  C   UNL     1      54.671 154.271  22.946  0.00  0.00    +0.079 C 
ATOM     24  C   UNL     1      54.322 153.084  23.561  0.00  0.00    +0.257 C 
ATOM     25  O   UNL     1      53.576 152.247  22.989  0.00  0.00    -0.269 OA
ENDBRANCH   2  19
TORSDOF 2
