REMARK  Name = =
REMARK  18 active torsions:
REMARK  status: ('A' for Active; 'I' for Inactive)
REMARK    1  A    between atoms: C_1  and  N_3
REMARK    2  A    between atoms: C_1  and  S_25
REMARK    3  A    between atoms: N_3  and  C_4
REMARK    4  A    between atoms: C_4  and  O_22
REMARK    5  A    between atoms: O_22  and  C_23
REMARK    6  A    between atoms: S_25  and  O_26
REMARK    7  A    between atoms: O_26  and  P_27
REMARK    8  A    between atoms: P_27  and  O_29
REMARK    9  A    between atoms: P_27  and  O_30
REMARK   10  A    between atoms: O_30  and  P_31
REMARK   11  A    between atoms: P_31  and  O_33
REMARK   12  A    between atoms: P_31  and  O_34
REMARK   13  A    between atoms: O_34  and  P_35
REMARK   14  A    between atoms: P_35  and  O_37
REMARK   15  A    between atoms: P_35  and  O_38
REMARK   16  A    between atoms: O_38  and  P_39
REMARK   17  A    between atoms: P_39  and  O_41
REMARK   18  A    between atoms: P_39  and  O_42
REMARK                            x       y       z     vdW  Elec       q    Type
REMARK                         _______ _______ _______ _____ _____    ______ ____
ROOT
ATOM      1  C   UNL     1      51.097 154.351  28.809  0.00  0.00    +0.137 C 
ATOM      2  S   UNL     1      50.051 155.085  27.788  0.00  0.00    -0.026 S 
ENDROOT
BRANCH   1   3
ATOM      3  N   UNL     1      52.216 153.678  28.260  0.00  0.00    -0.290 N 
ATOM      4  H   UNL     1      52.518 152.835  28.669  0.00  0.00    +0.151 HD
BRANCH   3   5
ATOM      5  C   UNL     1      52.906 154.187  27.144  0.00  0.00    +0.208 C 
ATOM      6  C   UNL     1      52.078 154.979  26.145  0.00  0.00    +0.064 C 
ATOM      7  C   UNL     1      52.988 155.203  24.931  0.00  0.00    +0.006 C 
ATOM      8  C   UNL     1      54.444 155.294  25.336  0.00  0.00    +0.004 C 
ATOM      9  C   UNL     1      54.985 153.986  25.827  0.00  0.00    +0.023 C 
ATOM     10  C   UNL     1      55.906 153.244  25.002  0.00  0.00    +0.009 C 
ATOM     11  C   UNL     1      56.020 151.770  25.293  0.00  0.00    +0.026 C 
ATOM     12  C   UNL     1      54.651 151.234  25.529  0.00  0.00    -0.024 C 
ATOM     13  C   UNL     1      54.406 150.029  25.057  0.00  0.00    +0.033 C 
ATOM     14  C   UNL     1      53.092 149.413  25.238  0.00  0.00    +0.173 C 
ATOM     15  O   UNL     1      52.846 148.207  24.994  0.00  0.00    -0.291 OA
ATOM     16  C   UNL     1      51.964 150.242  25.736  0.00  0.00    +0.074 C 
ATOM     17  C   UNL     1      52.490 151.265  26.761  0.00  0.00    +0.034 C 
ATOM     18  C   UNL     1      53.636 152.033  26.262  0.00  0.00    -0.029 C 
ATOM     19  C   UNL     1      53.825 153.301  26.422  0.00  0.00    +0.005 C 
ATOM     20  C   UNL     1      55.101 155.893  24.161  0.00  0.00    +0.000 C 
ATOM     21  C   UNL     1      54.104 156.982  23.749  0.00  0.00    +0.000 C 
ATOM     22  C   UNL     1      52.768 156.565  24.315  0.00  0.00    +0.000 C 
BRANCH   5  23
ATOM     23  O   UNL     1      53.714 155.244  27.753  0.00  0.00    -0.460 OA
BRANCH  23  24
ATOM     24  C   UNL     1      53.063 156.337  28.311  0.00  0.00    +0.174 C 
ATOM     25  C   UNL     1      53.389 157.568  27.957  0.00  0.00    +0.043 C 
ENDBRANCH  23  24
ENDBRANCH   5  23
ENDBRANCH   3   5
ENDBRANCH   1   3
BRANCH   1  26
ATOM     26  S   UNL     1      50.830 154.401  30.590  0.00  0.00    +0.064 S 
BRANCH  26  27
ATOM     27  O   UNL     1      50.896 156.014  31.106  0.00  0.00    -0.208 OA
BRANCH  27  28
ATOM     28  P   UNL     1      49.739 156.912  30.301  0.00  0.00    +0.495 P 
ATOM     29  O   UNL     1      48.960 157.699  31.351  0.00  0.00    -0.226 OA
BRANCH  28  30
ATOM     30  O   UNL     1      48.633 155.940  29.492  0.00  0.00    -0.302 OA
ATOM     31  H   UNL     1      48.242 155.308  30.115  0.00  0.00    +0.222 HD
ENDBRANCH  28  30
BRANCH  28  32
ATOM     32  O   UNL     1      50.443 158.030  29.245  0.00  0.00    -0.185 OA
BRANCH  32  33
ATOM     33  P   UNL     1      50.443 159.542  30.008  0.00  0.00    +0.492 P 
ATOM     34  O   UNL     1      49.793 159.434  31.375  0.00  0.00    -0.226 OA
BRANCH  33  35
ATOM     35  O   UNL     1      49.530 160.610  29.066  0.00  0.00    -0.302 OA
ATOM     36  H   UNL     1      49.932 160.691  28.187  0.00  0.00    +0.222 HD
ENDBRANCH  33  35
BRANCH  33  37
ATOM     37  O   UNL     1      52.012 160.099  30.209  0.00  0.00    -0.186 OA
BRANCH  37  38
ATOM     38  P   UNL     1      52.094 161.325  31.361  0.00  0.00    +0.492 P 
ATOM     39  O   UNL     1      53.544 161.467  31.795  0.00  0.00    -0.226 OA
BRANCH  38  40
ATOM     40  O   UNL     1      51.585 162.811  30.750  0.00  0.00    -0.302 OA
ATOM     41  H   UNL     1      52.108 163.034  29.964  0.00  0.00    +0.222 HD
ENDBRANCH  38  40
BRANCH  38  42
ATOM     42  O   UNL     1      51.166 160.960  32.732  0.00  0.00    -0.186 OA
BRANCH  42  43
ATOM     43  P   UNL     1      49.927 162.123  32.812  0.00  0.00    +0.481 P 
ATOM     44  O   UNL     1      50.501 163.511  33.050  0.00  0.00    -0.227 OA
BRANCH  43  45
ATOM     45  O   UNL     1      48.874 161.761  34.088  0.00  0.00    -0.302 OA
ATOM     46  H   UNL     1      49.367 161.759  34.923  0.00  0.00    +0.222 HD
ENDBRANCH  43  45
BRANCH  43  47
ATOM     47  O   UNL     1      49.040 162.119  31.365  0.00  0.00    -0.302 OA
ATOM     48  H   UNL     1      49.630 162.325  30.623  0.00  0.00    +0.222 HD
ENDBRANCH  43  47
ENDBRANCH  42  43
ENDBRANCH  38  42
ENDBRANCH  37  38
ENDBRANCH  33  37
ENDBRANCH  32  33
ENDBRANCH  28  32
ENDBRANCH  27  28
ENDBRANCH  26  27
ENDBRANCH   1  26
TORSDOF 18
