REMARK  Name = =
REMARK  0 active torsions:
REMARK  status: ('A' for Active; 'I' for Inactive)
REMARK                            x       y       z     vdW  Elec       q    Type
REMARK                         _______ _______ _______ _____ _____    ______ ____
ROOT
ATOM      1  O   UNL     1     -24.490 -45.374  28.856  0.00  0.00    -0.349 OA
ATOM      2  C   UNL     1     -23.564 -44.394  29.128  0.00  0.00    +0.147 C 
ATOM      3  C   UNL     1     -23.600 -43.234  28.186  0.00  0.00    +0.062 C 
ATOM      4  C   UNL     1     -23.465 -43.752  26.799  0.00  0.00    +0.021 C 
ATOM      5  C   UNL     1     -23.907 -44.977  26.568  0.00  0.00    +0.045 C 
ATOM      6  C   UNL     1     -24.517 -45.848  27.589  0.00  0.00    +0.172 C 
ATOM      7  C   UNL     1     -23.789 -45.518  25.209  0.00  0.00    +0.194 C 
ATOM      8  O   UNL     1     -24.192 -46.686  24.916  0.00  0.00    -0.287 OA
ATOM      9  C   UNL     1     -23.202 -44.748  24.112  0.00  0.00    +0.042 C 
ATOM     10  C   UNL     1     -22.744 -43.472  24.364  0.00  0.00    +0.042 C 
ATOM     11  C   UNL     1     -22.192 -42.749  23.330  0.00  0.00    +0.003 C 
ATOM     12  C   UNL     1     -22.079 -43.256  22.048  0.00  0.00    +0.000 C 
ATOM     13  C   UNL     1     -22.536 -44.531  21.797  0.00  0.00    +0.000 C 
ATOM     14  C   UNL     1     -23.091 -45.266  22.824  0.00  0.00    +0.003 C 
ATOM     15  C   UNL     1     -22.873 -42.958  25.722  0.00  0.00    +0.192 C 
ATOM     16  O   UNL     1     -22.473 -41.809  25.994  0.00  0.00    -0.287 OA
ENDROOT
TORSDOF 0
