REMARK  Name = =
REMARK  1 active torsions:
REMARK  status: ('A' for Active; 'I' for Inactive)
REMARK    1  A    between atoms: C_2  and  C_17
REMARK                            x       y       z     vdW  Elec       q    Type
REMARK                         _______ _______ _______ _____ _____    ______ ____
ROOT
ATOM      1  O   UNL     1     -24.969 -45.908  24.470  0.00  0.00    -0.349 OA
ATOM      2  C   UNL     1     -24.128 -46.912  24.889  0.00  0.00    +0.142 C 
ATOM      3  C   UNL     1     -22.687 -46.475  24.987  0.00  0.00    +0.061 C 
ATOM      4  C   UNL     1     -22.639 -45.065  25.493  0.00  0.00    +0.021 C 
ATOM      5  C   UNL     1     -23.742 -44.383  25.739  0.00  0.00    +0.045 C 
ATOM      6  C   UNL     1     -25.092 -45.000  25.520  0.00  0.00    +0.172 C 
ATOM      7  C   UNL     1     -23.603 -43.017  26.229  0.00  0.00    +0.194 C 
ATOM      8  O   UNL     1     -24.612 -42.339  26.474  0.00  0.00    -0.287 OA
ATOM      9  C   UNL     1     -22.299 -42.409  26.446  0.00  0.00    +0.042 C 
ATOM     10  C   UNL     1     -21.155 -43.149  26.179  0.00  0.00    +0.042 C 
ATOM     11  C   UNL     1     -19.897 -42.626  26.365  0.00  0.00    +0.003 C 
ATOM     12  C   UNL     1     -19.755 -41.341  26.827  0.00  0.00    +0.000 C 
ATOM     13  C   UNL     1     -20.877 -40.579  27.101  0.00  0.00    +0.000 C 
ATOM     14  C   UNL     1     -22.108 -41.130  26.905  0.00  0.00    +0.003 C 
ATOM     15  C   UNL     1     -21.302 -44.501  25.694  0.00  0.00    +0.192 C 
ATOM     16  O   UNL     1     -20.275 -45.185  25.447  0.00  0.00    -0.287 OA
ENDROOT
BRANCH   2  17
ATOM     17  C   UNL     1     -24.255 -48.184  24.082  0.00  0.00    +0.146 C 
ATOM     18  N   UNL     1     -25.232 -47.992  23.026  0.00  0.00    -0.266 N 
ATOM     19  C   UNL     1     -24.560 -47.693  21.808  0.00  0.00    +0.402 C 
ATOM     20  O   UNL     1     -25.066 -47.198  20.746  0.00  0.00    -0.226 OA
ATOM     21  O   UNL     1     -23.233 -48.047  21.998  0.00  0.00    -0.433 OA
ATOM     22  C   UNL     1     -23.016 -48.521  23.311  0.00  0.00    +0.232 C 
ATOM     23  H   UNL     1     -26.208 -48.058  23.135  0.00  0.00    +0.153 HD
ENDBRANCH   2  17
TORSDOF 1
