REMARK  Name = =
REMARK  2 active torsions:
REMARK  status: ('A' for Active; 'I' for Inactive)
REMARK    1  A    between atoms: C_1  and  C_8
REMARK    2  A    between atoms: C_1  and  C_23
REMARK                            x       y       z     vdW  Elec       q    Type
REMARK                         _______ _______ _______ _____ _____    ______ ____
ROOT
ATOM      1  C   UNL     1     -24.130 -48.183  24.171  0.00  0.00    +0.126 C 
ATOM      2  N   UNL     1     -22.831 -48.806  24.128  0.00  0.00    -0.268 N 
ATOM      3  C   UNL     1     -22.546 -49.077  22.767  0.00  0.00    +0.402 C 
ATOM      4  O   UNL     1     -21.414 -49.291  22.216  0.00  0.00    -0.226 OA
ATOM      5  O   UNL     1     -23.764 -49.071  22.105  0.00  0.00    -0.433 OA
ATOM      6  C   UNL     1     -24.549 -48.051  22.734  0.00  0.00    +0.230 C 
ATOM      7  H   UNL     1     -22.252 -49.005  24.898  0.00  0.00    +0.153 HD
ENDROOT
BRANCH   1   9
ATOM      8  O   UNL     1     -24.885 -45.906  24.491  0.00  0.00    -0.349 OA
ATOM      9  C   UNL     1     -23.963 -46.838  24.855  0.00  0.00    +0.140 C 
ATOM     10  C   UNL     1     -22.522 -46.374  24.815  0.00  0.00    +0.061 C 
ATOM     11  C   UNL     1     -22.403 -44.918  24.704  0.00  0.00    +0.021 C 
ATOM     12  C   UNL     1     -23.349 -44.188  24.144  0.00  0.00    +0.045 C 
ATOM     13  C   UNL     1     -24.524 -44.918  23.639  0.00  0.00    +0.172 C 
ATOM     14  C   UNL     1     -23.282 -42.753  24.009  0.00  0.00    +0.194 C 
ATOM     15  O   UNL     1     -24.217 -42.102  23.464  0.00  0.00    -0.287 OA
ATOM     16  C   UNL     1     -22.130 -42.036  24.504  0.00  0.00    +0.042 C 
ATOM     17  C   UNL     1     -21.114 -42.753  25.098  0.00  0.00    +0.042 C 
ATOM     18  C   UNL     1     -20.024 -42.056  25.565  0.00  0.00    +0.003 C 
ATOM     19  C   UNL     1     -19.927 -40.678  25.451  0.00  0.00    +0.000 C 
ATOM     20  C   UNL     1     -20.942 -39.983  24.860  0.00  0.00    +0.000 C 
ATOM     21  C   UNL     1     -22.049 -40.651  24.383  0.00  0.00    +0.003 C 
ATOM     22  C   UNL     1     -21.230 -44.219  25.212  0.00  0.00    +0.192 C 
ATOM     23  O   UNL     1     -20.291 -44.845  25.757  0.00  0.00    -0.287 OA
ENDBRANCH   1   9
BRANCH   1  24
ATOM     24  C   UNL     1     -25.164 -49.015  24.900  0.00  0.00    +0.027 C 
ATOM     25  C   UNL     1     -24.873 -49.203  26.338  0.00  0.00    +0.028 C 
ATOM     26  C   UNL     1     -24.937 -50.584  26.854  0.00  0.00    -0.026 C 
ATOM     27  C   UNL     1     -24.854 -51.713  26.076  0.00  0.00    -0.026 C 
ATOM     28  C   UNL     1     -24.911 -52.985  26.587  0.00  0.00    -0.005 C 
ATOM     29  C   UNL     1     -25.060 -53.151  27.962  0.00  0.00    -0.000 C 
ATOM     30  C   UNL     1     -25.147 -52.053  28.774  0.00  0.00    -0.000 C 
ATOM     31  C   UNL     1     -25.084 -50.769  28.211  0.00  0.00    -0.005 C 
ATOM     32  C   UNL     1     -25.293 -52.222  30.124  0.00  0.00    -0.000 C 
ATOM     33  C   UNL     1     -25.354 -53.477  30.674  0.00  0.00    -0.000 C 
ATOM     34  C   UNL     1     -25.267 -54.596  29.865  0.00  0.00    -0.000 C 
ATOM     35  C   UNL     1     -25.120 -54.410  28.504  0.00  0.00    -0.000 C 
ATOM     36  C   UNL     1     -24.702 -51.474  24.617  0.00  0.00    +0.026 C 
ATOM     37  C   UNL     1     -25.506 -50.266  24.185  0.00  0.00    +0.007 C 
ENDBRANCH   1  24
TORSDOF 2
