MODEL 1
REMARK VINA RESULT:   -10.845      0.000      0.000
REMARK INTER + INTRA:         -12.705
REMARK INTER:                 -12.747
REMARK INTRA:                   0.043
REMARK UNBOUND:                 0.043
REMARK  Name = =
REMARK  3 active torsions:
REMARK  status: ('A' for Active; 'I' for Inactive)
REMARK    1  A    between atoms: N_1  and  C_34
REMARK    2  A    between atoms: C_2  and  N_5
REMARK    3  A    between atoms: C_35  and  C_38
REMARK                            x       y       z     vdW  Elec       q    Type
REMARK                         _______ _______ _______ _____ _____    ______ ____
ROOT
ATOM      1  N   UNL     1     -20.053 -41.312  23.593  0.00  0.00    -0.296 N 
ATOM      2  C   UNL     1     -20.598 -40.264  22.774  0.00  0.00    +0.124 C 
ATOM      3  C   UNL     1     -19.401 -40.641  21.826  0.00  0.00    +0.058 C 
ATOM      4  C   UNL     1     -19.881 -42.020  22.376  0.00  0.00    +0.108 C 
ENDROOT
BRANCH   2   5
ATOM      5  N   UNL     1     -21.722 -40.277  21.993  0.00  0.00    -0.258 NA
ATOM      6  C   UNL     1     -22.725 -41.241  21.943  0.00  0.00    +0.091 C 
ATOM      7  C   UNL     1     -23.364 -41.499  20.611  0.00  0.00    +0.090 C 
ATOM      8  N   UNL     1     -24.836 -41.468  20.657  0.00  0.00    -0.271 NA
ATOM      9  C   UNL     1     -25.370 -41.088  19.384  0.00  0.00    +0.073 C 
ATOM     10  C   UNL     1     -26.730 -41.788  19.259  0.00  0.00    +0.019 C 
ATOM     11  C   UNL     1     -26.610 -42.986  20.128  0.00  0.00    +0.019 C 
ATOM     12  C   UNL     1     -25.267 -42.875  20.767  0.00  0.00    +0.072 C 
ATOM     13  C   UNL     1     -25.587 -39.589  19.214  0.00  0.00    +0.085 C 
ATOM     14  N   UNL     1     -25.607 -39.279  17.830  0.00  0.00    -0.295 NA
ATOM     15  C   UNL     1     -24.494 -39.654  17.041  0.00  0.00    +0.086 C 
ATOM     16  C   UNL     1     -23.248 -38.842  17.215  0.00  0.00    +0.086 C 
ATOM     17  N   UNL     1     -23.435 -37.557  17.818  0.00  0.00    -0.294 NA
ATOM     18  C   UNL     1     -22.569 -36.539  17.230  0.00  0.00    +0.101 C 
ATOM     19  C   UNL     1     -21.391 -36.384  18.163  0.00  0.00    +0.159 C 
ATOM     20  O   UNL     1     -21.176 -37.644  18.757  0.00  0.00    -0.352 OA
ATOM     21  C   UNL     1     -20.449 -37.426  19.892  0.00  0.00    +0.144 C 
ATOM     22  C   UNL     1     -21.063 -38.013  21.164  0.00  0.00    +0.049 C 
ATOM     23  C   UNL     1     -21.746 -39.299  20.930  0.00  0.00    +0.076 C 
ATOM     24  H   UNL     1     -25.708 -38.268  17.749  0.00  0.00    +0.123 HD
ATOM     25  H   UNL     1     -23.228 -37.628  18.814  0.00  0.00    +0.123 HD
ENDBRANCH   2   5
BRANCH   1  36
ATOM     26  N   UNL     1     -16.761 -41.982  27.073  0.00  0.00    -0.245 NA
ATOM     27  C   UNL     1     -18.023 -41.711  26.726  0.00  0.00    +0.082 C 
ATOM     28  C   UNL     1     -18.402 -41.819  25.390  0.00  0.00    +0.031 C 
ATOM     29  C   UNL     1     -17.463 -42.210  24.471  0.00  0.00    +0.004 C 
ATOM     30  C   UNL     1     -16.165 -42.476  24.891  0.00  0.00    +0.018 C 
ATOM     31  C   UNL     1     -15.811 -42.363  26.204  0.00  0.00    +0.081 C 
ATOM     32  C   UNL     1     -14.507 -42.590  26.671  0.00  0.00    +0.019 C 
ATOM     33  C   UNL     1     -13.606 -42.941  25.697  0.00  0.00    +0.002 C 
ATOM     34  C   UNL     1     -13.919 -43.072  24.354  0.00  0.00    +0.000 C 
ATOM     35  C   UNL     1     -15.234 -42.835  23.930  0.00  0.00    +0.001 C 
ATOM     36  C   UNL     1     -19.733 -41.517  24.987  0.00  0.00    +0.051 C 
ATOM     37  C   UNL     1     -20.642 -41.145  25.952  0.00  0.00    +0.047 C 
ATOM     38  C   UNL     1     -20.203 -41.056  27.286  0.00  0.00    +0.003 C 
ATOM     39  C   UNL     1     -18.931 -41.328  27.673  0.00  0.00    +0.019 C 
BRANCH  37  40
ATOM     40  C   UNL     1     -22.094 -41.030  25.688  0.00  0.00    +0.261 C 
ATOM     41  O   UNL     1     -22.672 -40.936  26.997  0.00  0.00    -0.324 OA
ATOM     42  C   UNL     1     -23.358 -42.046  27.304  0.00  0.00    +0.177 C 
ATOM     43  C   UNL     1     -23.073 -43.008  26.185  0.00  0.00    +0.177 C 
ATOM     44  O   UNL     1     -22.641 -42.204  25.189  0.00  0.00    -0.324 OA
ENDBRANCH  37  40
ENDBRANCH   1  36
TORSDOF 3
ENDMDL
