REMARK  Name = =
REMARK  5 active torsions:
REMARK  status: ('A' for Active; 'I' for Inactive)
REMARK    1  A    between atoms: S_1  and  C_10
REMARK    2  A    between atoms: C_4  and  N_28
REMARK    3  A    between atoms: C_7  and  C_35
REMARK    4  A    between atoms: C_13  and  N_18
REMARK    5  A    between atoms: C_16  and  P_26
REMARK                            x       y       z     vdW  Elec       q    Type
REMARK                         _______ _______ _______ _____ _____    ______ ____
ROOT
ATOM      1  S   UNL     1     -13.054   1.881  22.568  0.00  0.00    -0.138 S 
ATOM      2  C   UNL     1     -11.496   2.623  21.796  0.00  0.00    +0.075 C 
ATOM      3  C   UNL     1     -11.924   3.848  21.143  0.00  0.00    +0.015 C 
ATOM      4  C   UNL     1     -13.017   4.568  21.403  0.00  0.00    +0.108 C 
ATOM      5  N   UNL     1     -13.959   4.216  22.392  0.00  0.00    -0.240 N 
ATOM      6  C   UNL     1     -13.582   3.185  23.335  0.00  0.00    +0.128 C 
ATOM      7  C   UNL     1     -14.736   3.489  24.145  0.00  0.00    +0.126 C 
ATOM      8  C   UNL     1     -15.196   4.327  23.012  0.00  0.00    +0.235 C 
ATOM      9  O   UNL     1     -16.333   4.883  22.798  0.00  0.00    -0.274 OA
ATOM     10  H   UNL     1     -14.155   1.424  21.913  0.00  0.00    +0.094 HD
ENDROOT
BRANCH   1  11
ATOM     11  C   UNL     1     -12.722   0.247  23.162  0.00  0.00    +0.260 C 
ATOM     12  O   UNL     1     -11.951   0.157  24.197  0.00  0.00    -0.264 OA
ATOM     13  N   UNL     1     -13.212  -0.928  22.611  0.00  0.00    -0.257 N 
ATOM     14  C   UNL     1     -12.902  -2.226  23.148  0.00  0.00    +0.155 C 
ATOM     15  C   UNL     1     -11.945  -2.896  22.205  0.00  0.00    +0.126 C 
ATOM     16  N   UNL     1     -12.176  -2.381  20.845  0.00  0.00    -0.207 NA
ATOM     17  C   UNL     1     -13.607  -2.178  20.643  0.00  0.00    +0.144 C 
ATOM     18  C   UNL     1     -14.091  -0.969  21.426  0.00  0.00    +0.120 C 
BRANCH  14  19
ATOM     19  N   UNL     1     -12.391  -2.097  24.470  0.00  0.00    -0.260 NA
ATOM     20  C   UNL     1     -13.327  -2.280  25.539  0.00  0.00    +0.059 C 
ATOM     21  C   UNL     1     -12.415  -2.301  26.761  0.00  0.00    +0.017 C 
ATOM     22  C   UNL     1     -11.004  -2.553  26.205  0.00  0.00    +0.017 C 
ATOM     23  C   UNL     1     -11.389  -3.084  24.808  0.00  0.00    +0.059 C 
ATOM     24  C   UNL     1     -11.852  -4.472  25.002  0.00  0.00    +0.016 C 
ATOM     25  C   UNL     1     -13.314  -4.729  25.064  0.00  0.00    +0.003 C 
ATOM     26  C   UNL     1     -14.124  -3.534  25.496  0.00  0.00    +0.016 C 
ENDBRANCH  14  19
BRANCH  17  27
ATOM     27  P   UNL     1     -13.888  -1.805  18.853  0.00  0.00    +0.155 P 
ATOM     28  O   UNL     1     -14.925  -0.732  18.393  0.00  0.00    -0.201 OA
ENDBRANCH  17  27
ENDBRANCH   1  11
BRANCH   4  29
ATOM     29  N   UNL     1     -13.300   5.752  20.666  0.00  0.00    -0.247 N 
ATOM     30  C   UNL     1     -13.059   7.015  21.265  0.00  0.00    +0.230 C 
ATOM     31  O   UNL     1     -12.335   7.134  22.270  0.00  0.00    -0.275 OA
ATOM     32  C   UNL     1     -13.735   8.180  20.596  0.00  0.00    +0.086 C 
ATOM     33  C   UNL     1     -13.498   8.184  19.103  0.00  0.00    +0.011 C 
ATOM     34  C   UNL     1     -13.040   6.847  18.591  0.00  0.00    +0.022 C 
ATOM     35  C   UNL     1     -13.822   5.736  19.311  0.00  0.00    +0.099 C 
ENDBRANCH   4  29
BRANCH   7  36
ATOM     36  C   UNL     1     -14.303   4.445  25.278  0.00  0.00    +0.130 C 
ATOM     37  N   UNL     1     -13.139   4.022  25.966  0.00  0.00    -0.268 N 
ATOM     38  C   UNL     1     -13.224   4.667  27.257  0.00  0.00    +0.402 C 
ATOM     39  O   UNL     1     -12.307   4.934  28.076  0.00  0.00    -0.226 OA
ATOM     40  O   UNL     1     -14.588   4.964  27.458  0.00  0.00    -0.433 OA
ATOM     41  C   UNL     1     -15.344   4.481  26.361  0.00  0.00    +0.230 C 
ATOM     42  H   UNL     1     -12.430   3.422  25.638  0.00  0.00    +0.153 HD
ENDBRANCH   7  36
TORSDOF 5
