MODEL 1
REMARK VINA RESULT:    -6.986      0.000      0.000
REMARK INTER + INTRA:         -11.193
REMARK INTER:                 -11.479
REMARK INTRA:                   0.286
REMARK UNBOUND:                 0.286
REMARK  Name = =
REMARK  13 active torsions:
REMARK  status: ('A' for Active; 'I' for Inactive)
REMARK    1  A    between atoms: C_1  and  C_4
REMARK    2  A    between atoms: C_1  and  O_19
REMARK    3  A    between atoms: C_1  and  C_20
REMARK    4  A    between atoms: C_3  and  C_12
REMARK    5  A    between atoms: C_5  and  C_9
REMARK    6  A    between atoms: C_6  and  O_18
REMARK    7  A    between atoms: C_12  and  C_14
REMARK    8  A    between atoms: N_16  and  O_17
REMARK    9  A    between atoms: C_20  and  N_21
REMARK   10  A    between atoms: C_22  and  C_24
REMARK   11  A    between atoms: C_28  and  S_29
REMARK   12  A    between atoms: S_29  and  C_30
REMARK   13  A    between atoms: C_33  and  O_36
REMARK                            x       y       z     vdW  Elec       q    Type
REMARK                         _______ _______ _______ _____ _____    ______ ____
ROOT
ATOM      1  C   UNL     1      59.359 162.324  41.378  0.00  0.00    +0.125 C 
ATOM      2  C   UNL     1      60.276 161.644  42.324  0.00  0.00    +0.036 C 
ENDROOT
BRANCH   1   4
ATOM      3  C   UNL     1      58.586 160.388  40.181  0.00  0.00    +0.042 C 
ATOM      4  C   UNL     1      59.092 161.702  40.052  0.00  0.00    +0.014 C 
ATOM      5  C   UNL     1      59.442 162.232  38.872  0.00  0.00    +0.085 C 
ATOM      6  C   UNL     1      59.295 161.415  37.693  0.00  0.00    +0.138 C 
ATOM      7  C   UNL     1      58.814 160.150  37.817  0.00  0.00    +0.037 C 
ATOM      8  C   UNL     1      58.464 159.636  39.017  0.00  0.00    +0.006 C 
BRANCH   5   9
ATOM      9  C   UNL     1      59.993 163.515  38.545  0.00  0.00    +0.245 C 
ATOM     10  O   UNL     1      59.485 164.613  38.508  0.00  0.00    -0.270 OA
ATOM     11  N   UNL     1      61.406 163.609  38.180  0.00  0.00    -0.325 N 
ATOM     12  H   UNL     1      61.964 162.798  38.162  0.00  0.00    +0.145 HD
ATOM     13  H   UNL     1      61.799 164.483  37.952  0.00  0.00    +0.145 HD
ENDBRANCH   5   9
BRANCH   3  14
ATOM     14  C   UNL     1      58.063 159.808  41.407  0.00  0.00    +0.250 C 
ATOM     15  O   UNL     1      58.765 159.345  42.293  0.00  0.00    -0.282 OA
BRANCH  14  16
ATOM     16  C   UNL     1      56.596 159.758  41.614  0.00  0.00    +0.307 C 
ATOM     17  O   UNL     1      55.881 160.654  41.137  0.00  0.00    -0.265 OA
ATOM     18  N   UNL     1      56.000 158.714  42.342  0.00  0.00    -0.191 N 
ATOM     19  H   UNL     1      56.560 157.998  42.719  0.00  0.00    +0.183 HD
BRANCH  18  20
ATOM     20  O   UNL     1      54.676 158.688  42.525  0.00  0.00    -0.295 OA
ATOM     21  H   UNL     1      54.280 159.485  42.140  0.00  0.00    +0.241 HD
ENDBRANCH  18  20
ENDBRANCH  14  16
ENDBRANCH   3  14
BRANCH   6  22
ATOM     22  O   UNL     1      59.623 161.856  36.448  0.00  0.00    -0.505 OA
ATOM     23  H   UNL     1      59.719 161.245  35.744  0.00  0.00    +0.292 HD
ENDBRANCH   6  22
ENDBRANCH   1   4
BRANCH   1  24
ATOM     24  O   UNL     1      60.275 163.439  40.994  0.00  0.00    -0.381 OA
ATOM     25  H   UNL     1      60.741 163.207  40.175  0.00  0.00    +0.211 HD
ENDBRANCH   1  24
BRANCH   1  26
ATOM     26  C   UNL     1      58.164 162.856  42.023  0.00  0.00    +0.121 C 
BRANCH  26  27
ATOM     27  N   UNL     1      57.087 163.457  41.337  0.00  0.00    -0.297 N 
ATOM     28  C   UNL     1      55.945 164.132  41.799  0.00  0.00    +0.264 C 
ATOM     29  O   UNL     1      55.718 164.269  43.027  0.00  0.00    -0.269 OA
ATOM     30  H   UNL     1      57.146 163.392  40.357  0.00  0.00    +0.150 HD
BRANCH  28  31
ATOM     31  C   UNL     1      54.928 164.733  40.922  0.00  0.00    +0.164 C 
ATOM     32  N   UNL     1      55.081 165.857  40.315  0.00  0.00    -0.082 NA
ATOM     33  O   UNL     1      53.993 166.178  39.577  0.00  0.00    -0.376 OA
ATOM     34  C   UNL     1      52.975 165.223  39.703  0.00  0.00    +0.256 C 
ATOM     35  C   UNL     1      53.610 164.144  40.536  0.00  0.00    +0.146 C 
BRANCH  35  36
ATOM     36  S   UNL     1      52.618 163.559  41.879  0.00  0.00    -0.104 S 
BRANCH  36  37
ATOM     37  C   UNL     1      50.906 163.303  41.569  0.00  0.00    +0.026 C 
ATOM     38  C   UNL     1      50.079 164.377  41.256  0.00  0.00    +0.009 C 
ATOM     39  C   UNL     1      48.721 164.191  40.992  0.00  0.00    +0.037 C 
ATOM     40  C   UNL     1      48.171 162.907  41.042  0.00  0.00    +0.134 C 
ATOM     41  C   UNL     1      48.973 161.856  41.349  0.00  0.00    +0.037 C 
ATOM     42  C   UNL     1      50.320 162.050  41.609  0.00  0.00    +0.009 C 
BRANCH  40  43
ATOM     43  O   UNL     1      46.798 162.756  40.772  0.00  0.00    -0.506 OA
ATOM     44  H   UNL     1      46.165 162.965  41.431  0.00  0.00    +0.292 HD
ENDBRANCH  40  43
ENDBRANCH  36  37
ENDBRANCH  35  36
ENDBRANCH  28  31
ENDBRANCH  26  27
ENDBRANCH   1  26
TORSDOF 13
ENDMDL
