MODEL 1
REMARK VINA RESULT:   -10.516      0.000      0.000
REMARK INTER + INTRA:         -16.092
REMARK INTER:                 -15.434
REMARK INTRA:                  -0.658
REMARK UNBOUND:                -0.658
REMARK  Name = =
REMARK  9 active torsions:
REMARK  status: ('A' for Active; 'I' for Inactive)
REMARK    1  A    between atoms: C_1  and  C_9
REMARK    2  A    between atoms: C_1  and  C_19
REMARK    3  A    between atoms: C_2  and  N_26
REMARK    4  A    between atoms: C_21  and  N_25
REMARK    5  A    between atoms: N_29  and  C_32
REMARK    6  A    between atoms: C_33  and  O_38
REMARK    7  A    between atoms: O_38  and  N_39
REMARK    8  A    between atoms: N_39  and  N_40
REMARK    9  A    between atoms: N_39  and  O_42
REMARK                            x       y       z     vdW  Elec       q    Type
REMARK                         _______ _______ _______ _____ _____    ______ ____
ROOT
ATOM      1  C   UNL     1       0.450  -5.895  28.829  0.00  0.00    +0.106 C 
ATOM      2  C   UNL     1       1.379  -4.836  29.270  0.00  0.00    +0.095 C 
ATOM      3  C   UNL     1       0.579  -4.035  30.328  0.00  0.00    +0.090 C 
ATOM      4  C   UNL     1      -0.737  -3.634  29.802  0.00  0.00    +0.175 C 
ATOM      5  O   UNL     1      -1.464  -2.841  30.459  0.00  0.00    -0.291 OA
ATOM      6  C   UNL     1      -1.210  -4.143  28.523  0.00  0.00    +0.034 C 
ATOM      7  C   UNL     1      -0.663  -5.227  28.027  0.00  0.00    -0.011 C 
ENDROOT
BRANCH   1   9
ATOM      8  C   UNL     1       0.474  -6.848  31.155  0.00  0.00    +0.076 C 
ATOM      9  C   UNL     1      -0.239  -6.436  30.082  0.00  0.00    +0.134 C 
ATOM     10  O   UNL     1      -1.553  -6.491  30.094  0.00  0.00    -0.457 OA
ATOM     11  C   UNL     1      -2.274  -6.926  31.093  0.00  0.00    +0.148 C 
ATOM     12  C   UNL     1      -1.620  -7.364  32.224  0.00  0.00    +0.074 C 
ATOM     13  C   UNL     1      -2.325  -7.843  33.329  0.00  0.00    +0.006 C 
ATOM     14  C   UNL     1      -3.703  -7.864  33.252  0.00  0.00    +0.000 C 
ATOM     15  C   UNL     1      -4.374  -7.427  32.122  0.00  0.00    +0.003 C 
ATOM     16  C   UNL     1      -3.652  -6.959  31.045  0.00  0.00    +0.038 C 
ATOM     17  C   UNL     1      -0.241  -7.329  32.265  0.00  0.00    +0.201 C 
ATOM     18  O   UNL     1       0.383  -7.719  33.276  0.00  0.00    -0.286 OA
ENDBRANCH   1   9
BRANCH   1  19
ATOM     19  C   UNL     1       0.917  -7.089  28.161  0.00  0.00    -0.010 C 
ATOM     20  C   UNL     1      -0.008  -7.737  27.306  0.00  0.00    +0.011 C 
ATOM     21  C   UNL     1       0.275  -8.888  26.651  0.00  0.00    +0.041 C 
ATOM     22  C   UNL     1       1.502  -9.484  26.796  0.00  0.00    +0.014 C 
ATOM     23  C   UNL     1       2.431  -8.903  27.607  0.00  0.00    +0.001 C 
ATOM     24  C   UNL     1       2.111  -7.723  28.267  0.00  0.00    -0.003 C 
BRANCH  21  25
ATOM     25  N   UNL     1      -0.687  -9.530  25.788  0.00  0.00    -0.357 N 
ATOM     26  H   UNL     1      -0.464 -10.385  25.354  0.00  0.00    +0.142 HD
ATOM     27  H   UNL     1      -1.565  -9.114  25.634  0.00  0.00    +0.142 HD
ENDBRANCH  21  25
ENDBRANCH   1  19
BRANCH   2  28
ATOM     28  N   UNL     1       1.997  -3.979  28.371  0.00  0.00    -0.304 N 
ATOM     29  C   UNL     1       2.305  -2.683  28.744  0.00  0.00    +0.078 C 
ATOM     30  C   UNL     1       2.614  -1.677  27.659  0.00  0.00    +0.082 C 
ATOM     31  N   UNL     1       2.511  -2.168  26.321  0.00  0.00    -0.281 N 
ATOM     32  C   UNL     1       1.761  -3.365  26.073  0.00  0.00    +0.117 C 
ATOM     33  C   UNL     1       2.344  -4.384  27.073  0.00  0.00    +0.113 C 
BRANCH  31  34
ATOM     34  C   UNL     1       3.117  -1.504  25.232  0.00  0.00    +0.089 C 
ATOM     35  C   UNL     1       4.384  -1.882  24.836  0.00  0.00    +0.191 C 
ATOM     36  C   UNL     1       5.037  -1.286  23.783  0.00  0.00    +0.042 C 
ATOM     37  C   UNL     1       4.406  -0.273  23.097  0.00  0.00    +0.003 C 
ATOM     38  C   UNL     1       3.135   0.132  23.469  0.00  0.00    +0.001 C 
ATOM     39  C   UNL     1       2.489  -0.490  24.545  0.00  0.00    +0.018 C 
BRANCH  35  40
ATOM     40  O   UNL     1       5.000  -2.901  25.534  0.00  0.00    -0.332 OA
BRANCH  40  41
ATOM     41  N   UNL     1       5.821  -2.584  26.576  0.00  0.00    +0.055 N 
BRANCH  41  42
ATOM     42  N   UNL     1       5.858  -3.419  27.688  0.00  0.00    +0.118 NA
ATOM     43  O   UNL     1       6.089  -4.628  27.529  0.00  0.00    -0.119 OA
ENDBRANCH  41  42
BRANCH  41  44
ATOM     44  O   UNL     1       6.600  -1.484  26.560  0.00  0.00    -0.235 OA
ATOM     45  H   UNL     1       6.877  -1.270  27.465  0.00  0.00    +0.250 HD
ENDBRANCH  41  44
ENDBRANCH  40  41
ENDBRANCH  35  40
ENDBRANCH  31  34
ENDBRANCH   2  28
TORSDOF 9
ENDMDL
