REMARK  Name = =
REMARK  9 active torsions:
REMARK  status: ('A' for Active; 'I' for Inactive)
REMARK    1  A    between atoms: C_1  and  C_9
REMARK    2  A    between atoms: C_1  and  C_19
REMARK    3  A    between atoms: C_2  and  N_26
REMARK    4  A    between atoms: C_21  and  N_25
REMARK    5  A    between atoms: N_29  and  C_32
REMARK    6  A    between atoms: C_33  and  O_38
REMARK    7  A    between atoms: O_38  and  N_39
REMARK    8  A    between atoms: N_39  and  N_40
REMARK    9  A    between atoms: N_39  and  O_42
REMARK                            x       y       z     vdW  Elec       q    Type
REMARK                         _______ _______ _______ _____ _____    ______ ____
ROOT
ATOM      1  C   UNL     1     -12.214  -0.804  28.442  0.00  0.00    +0.106 C 
ATOM      2  C   UNL     1     -13.377  -1.581  27.972  0.00  0.00    +0.095 C 
ATOM      3  C   UNL     1     -12.918  -3.058  28.061  0.00  0.00    +0.090 C 
ATOM      4  C   UNL     1     -11.628  -3.252  27.377  0.00  0.00    +0.175 C 
ATOM      5  O   UNL     1     -11.172  -4.415  27.207  0.00  0.00    -0.291 OA
ATOM      6  C   UNL     1     -10.869  -2.110  26.890  0.00  0.00    +0.034 C 
ATOM      7  C   UNL     1     -11.124  -0.920  27.380  0.00  0.00    -0.011 C 
ENDROOT
BRANCH   1   9
ATOM      8  C   UNL     1     -10.320  -1.683  29.841  0.00  0.00    +0.076 C 
ATOM      9  C   UNL     1     -11.652  -1.533  29.663  0.00  0.00    +0.134 C 
ATOM     10  O   UNL     1     -12.501  -2.013  30.545  0.00  0.00    -0.457 OA
ATOM     11  C   UNL     1     -12.166  -2.654  31.633  0.00  0.00    +0.148 C 
ATOM     12  C   UNL     1     -10.825  -2.848  31.886  0.00  0.00    +0.074 C 
ATOM     13  C   UNL     1     -10.394  -3.524  33.028  0.00  0.00    +0.006 C 
ATOM     14  C   UNL     1     -11.356  -3.994  33.899  0.00  0.00    +0.000 C 
ATOM     15  C   UNL     1     -12.707  -3.806  33.658  0.00  0.00    +0.003 C 
ATOM     16  C   UNL     1     -13.105  -3.135  32.522  0.00  0.00    +0.038 C 
ATOM     17  C   UNL     1      -9.891  -2.365  30.992  0.00  0.00    +0.201 C 
ATOM     18  O   UNL     1      -8.667  -2.524  31.193  0.00  0.00    -0.286 OA
ENDBRANCH   1   9
BRANCH   1  19
ATOM     19  C   UNL     1     -12.343   0.562  28.897  0.00  0.00    -0.010 C 
ATOM     20  C   UNL     1     -11.141   1.300  29.028  0.00  0.00    +0.011 C 
ATOM     21  C   UNL     1     -11.104   2.574  29.486  0.00  0.00    +0.041 C 
ATOM     22  C   UNL     1     -12.263   3.213  29.849  0.00  0.00    +0.014 C 
ATOM     23  C   UNL     1     -13.449   2.550  29.742  0.00  0.00    +0.001 C 
ATOM     24  C   UNL     1     -13.454   1.243  29.270  0.00  0.00    -0.003 C 
BRANCH  21  25
ATOM     25  N   UNL     1      -9.866   3.303  29.614  0.00  0.00    -0.357 N 
ATOM     26  H   UNL     1      -9.015   2.876  29.363  0.00  0.00    +0.142 HD
ATOM     27  H   UNL     1      -9.872   4.227  29.952  0.00  0.00    +0.142 HD
ENDBRANCH  21  25
ENDBRANCH   1  19
BRANCH   2  28
ATOM     28  N   UNL     1     -13.985  -1.330  26.750  0.00  0.00    -0.304 N 
ATOM     29  C   UNL     1     -13.766  -0.131  26.097  0.00  0.00    +0.078 C 
ATOM     30  C   UNL     1     -14.716   0.269  24.991  0.00  0.00    +0.082 C 
ATOM     31  N   UNL     1     -15.797  -0.634  24.756  0.00  0.00    -0.281 N 
ATOM     32  C   UNL     1     -16.154  -1.576  25.777  0.00  0.00    +0.117 C 
ATOM     33  C   UNL     1     -14.821  -2.269  26.128  0.00  0.00    +0.113 C 
BRANCH  31  34
ATOM     34  C   UNL     1     -16.534  -0.622  23.551  0.00  0.00    +0.089 C 
ATOM     35  C   UNL     1     -17.501   0.345  23.365  0.00  0.00    +0.191 C 
ATOM     36  C   UNL     1     -18.256   0.423  22.219  0.00  0.00    +0.042 C 
ATOM     37  C   UNL     1     -18.042  -0.497  21.218  0.00  0.00    +0.003 C 
ATOM     38  C   UNL     1     -17.080  -1.481  21.372  0.00  0.00    +0.001 C 
ATOM     39  C   UNL     1     -16.322  -1.541  22.549  0.00  0.00    +0.018 C 
BRANCH  35  40
ATOM     40  O   UNL     1     -17.701   1.260  24.379  0.00  0.00    -0.332 OA
BRANCH  40  41
ATOM     41  N   UNL     1     -18.059   2.536  24.056  0.00  0.00    +0.055 N 
BRANCH  41  42
ATOM     42  N   UNL     1     -17.065   3.483  23.833  0.00  0.00    +0.118 NA
ATOM     43  O   UNL     1     -15.975   3.117  23.367  0.00  0.00    -0.119 OA
ENDBRANCH  41  42
BRANCH  41  44
ATOM     44  O   UNL     1     -19.350   2.906  23.945  0.00  0.00    -0.235 OA
ATOM     45  H   UNL     1     -19.922   2.144  24.128  0.00  0.00    +0.250 HD
ENDBRANCH  41  44
ENDBRANCH  40  41
ENDBRANCH  35  40
ENDBRANCH  31  34
ENDBRANCH   2  28
TORSDOF 9
