MODEL 1
REMARK VINA RESULT:    -8.230      0.000      0.000
REMARK INTER + INTRA:         -10.161
REMARK INTER:                 -10.395
REMARK INTRA:                   0.234
REMARK UNBOUND:                 0.234
REMARK  Name = =
REMARK  5 active torsions:
REMARK  status: ('A' for Active; 'I' for Inactive)
REMARK    1  A    between atoms: C_1  and  S_14
REMARK    2  A    between atoms: C_6  and  C_7
REMARK    3  A    between atoms: S_14  and  N_17
REMARK    4  A    between atoms: N_17  and  N_20
REMARK    5  A    between atoms: C_18  and  O_21
REMARK                            x       y       z     vdW  Elec       q    Type
REMARK                         _______ _______ _______ _____ _____    ______ ____
ROOT
ATOM      1  C   UNL     1      53.952 154.234  25.577  0.00  0.00    +0.122 C 
ATOM      2  C   UNL     1      54.947 154.153  24.610  0.00  0.00    +0.020 C 
ATOM      3  C   UNL     1      55.414 155.242  23.930  0.00  0.00    +0.001 C 
ATOM      4  C   UNL     1      54.897 156.467  24.197  0.00  0.00    -0.000 C 
ATOM      5  C   UNL     1      53.912 156.571  25.152  0.00  0.00    -0.001 C 
ATOM      6  C   UNL     1      53.413 155.477  25.861  0.00  0.00    +0.023 C 
ENDROOT
BRANCH   6   7
ATOM      7  C   UNL     1      52.486 155.634  26.948  0.00  0.00    +0.140 C 
ATOM      8  O   UNL     1      51.226 155.180  26.952  0.00  0.00    -0.344 OA
ATOM      9  C   UNL     1      50.891 154.723  28.254  0.00  0.00    +0.206 C 
ATOM     10  C   UNL     1      51.556 155.495  29.327  0.00  0.00    +0.180 C 
ATOM     11  O   UNL     1      51.320 155.160  30.505  0.00  0.00    -0.293 OA
ATOM     12  C   UNL     1      52.483 156.641  29.214  0.00  0.00    +0.070 C 
ATOM     13  C   UNL     1      52.624 156.921  27.738  0.00  0.00    +0.042 C 
ENDBRANCH   6   7
BRANCH   1  14
ATOM     14  S   UNL     1      53.271 152.829  26.361  0.00  0.00    +0.075 S 
ATOM     15  O   UNL     1      53.501 152.711  27.798  0.00  0.00    -0.152 OA
ATOM     16  O   UNL     1      51.829 152.641  25.922  0.00  0.00    -0.152 OA
BRANCH  14  17
ATOM     17  N   UNL     1      54.116 151.448  25.670  0.00  0.00    -0.105 NA
ATOM     18  H   UNL     1      54.917 151.211  26.256  0.00  0.00    +0.172 HD
BRANCH  17  21
ATOM     19  C   UNL     1      53.505 149.104  25.130  0.00  0.00    +0.413 C 
ATOM     20  O   UNL     1      54.755 148.949  24.630  0.00  0.00    -0.225 OA
ATOM     21  N   UNL     1      53.239 150.358  25.610  0.00  0.00    -0.197 N 
ATOM     22  H   UNL     1      52.329 150.510  25.953  0.00  0.00    +0.174 HD
BRANCH  19  23
ATOM     23  O   UNL     1      52.808 147.961  25.030  0.00  0.00    -0.465 OA
ATOM     24  H   UNL     1      52.773 147.503  24.213  0.00  0.00    +0.297 HD
ENDBRANCH  19  23
ENDBRANCH  17  21
ENDBRANCH  14  17
ENDBRANCH   1  14
TORSDOF 5
ENDMDL
