MODEL 1
REMARK VINA RESULT:    -6.848      0.000      0.000
REMARK INTER + INTRA:         -10.985
REMARK INTER:                  -9.250
REMARK INTRA:                  -1.735
REMARK UNBOUND:                -1.735
REMARK  Name = =
REMARK  6 active torsions:
REMARK  status: ('A' for Active; 'I' for Inactive)
REMARK    1  A    between atoms: C_1  and  C_18
REMARK    2  A    between atoms: C_1  and  N_26
REMARK    3  A    between atoms: C_20  and  O_24
REMARK    4  A    between atoms: C_29  and  C_32
REMARK    5  A    between atoms: C_37  and  N_38
REMARK    6  A    between atoms: C_39  and  C_41
REMARK                            x       y       z     vdW  Elec       q    Type
REMARK                         _______ _______ _______ _____ _____    ______ ____
ROOT
ATOM      1  C   UNL     1      61.435 164.194  37.866  0.00  0.00    +0.085 C 
ATOM      2  C   UNL     1      62.896 163.779  37.874  0.00  0.00    +0.021 C 
ATOM      3  C   UNL     1      63.717 164.894  37.262  0.00  0.00    +0.006 C 
ATOM      4  C   UNL     1      63.308 165.261  35.871  0.00  0.00    +0.018 C 
ATOM      5  C   UNL     1      63.965 166.525  35.475  0.00  0.00    +0.004 C 
ATOM      6  C   UNL     1      63.095 167.413  34.649  0.00  0.00    +0.005 C 
ATOM      7  C   UNL     1      63.784 168.558  34.015  0.00  0.00    +0.000 C 
ATOM      8  C   UNL     1      65.028 168.218  33.273  0.00  0.00    +0.000 C 
ATOM      9  C   UNL     1      66.003 169.358  33.466  0.00  0.00    +0.000 C 
ATOM     10  C   UNL     1      65.514 170.112  34.675  0.00  0.00    +0.000 C 
ATOM     11  C   UNL     1      64.162 169.577  35.049  0.00  0.00    +0.000 C 
ATOM     12  C   UNL     1      65.573 166.868  33.550  0.00  0.00    +0.000 C 
ATOM     13  C   UNL     1      65.353 166.368  34.936  0.00  0.00    +0.000 C 
ATOM     14  C   UNL     1      62.177 166.636  33.721  0.00  0.00    +0.025 C 
ATOM     15  C   UNL     1      61.309 165.822  34.621  0.00  0.00    -0.035 C 
ATOM     16  C   UNL     1      61.849 165.172  35.638  0.00  0.00    -0.047 C 
ATOM     17  C   UNL     1      60.924 164.391  36.481  0.00  0.00    +0.042 C 
ENDROOT
BRANCH   1  18
ATOM     18  C   UNL     1      61.346 165.480  38.612  0.00  0.00    +0.075 C 
ATOM     19  C   UNL     1      60.537 166.518  38.237  0.00  0.00    +0.056 C 
ATOM     20  C   UNL     1      60.519 167.674  38.983  0.00  0.00    +0.172 C 
ATOM     21  C   UNL     1      61.313 167.791  40.108  0.00  0.00    +0.060 C 
ATOM     22  C   UNL     1      62.123 166.738  40.480  0.00  0.00    +0.102 C 
ATOM     23  N   UNL     1      62.103 165.637  39.716  0.00  0.00    -0.247 NA
BRANCH  20  24
ATOM     24  O   UNL     1      59.732 168.766  38.668  0.00  0.00    -0.365 OA
ATOM     25  N   UNL     1      58.413 168.690  39.100  0.00  0.00    +0.111 NA
ENDBRANCH  20  24
ENDBRANCH   1  18
BRANCH   1  26
ATOM     26  N   UNL     1      60.673 163.230  38.578  0.00  0.00    -0.266 NA
ATOM     27  C   UNL     1      60.601 161.912  38.012  0.00  0.00    +0.077 C 
ATOM     28  C   UNL     1      59.146 161.370  38.082  0.00  0.00    +0.043 C 
ATOM     29  C   UNL     1      58.822 161.315  39.487  0.00  0.00    -0.023 C 
ATOM     30  C   UNL     1      58.954 162.578  40.024  0.00  0.00    -0.013 C 
ATOM     31  C   UNL     1      59.383 163.641  39.052  0.00  0.00    +0.099 C 
BRANCH  29  32
ATOM     32  C   UNL     1      58.411 160.306  40.408  0.00  0.00    +0.009 C 
ATOM     33  C   UNL     1      57.106 160.318  40.932  0.00  0.00    +0.001 C 
ATOM     34  C   UNL     1      56.625 159.363  41.808  0.00  0.00    +0.000 C 
ATOM     35  C   UNL     1      57.425 158.340  42.208  0.00  0.00    +0.001 C 
ATOM     36  C   UNL     1      58.698 158.291  41.725  0.00  0.00    +0.015 C 
ATOM     37  C   UNL     1      59.177 159.254  40.843  0.00  0.00    +0.050 C 
BRANCH  37  38
ATOM     38  N   UNL     1      60.535 159.154  40.481  0.00  0.00    -0.280 N 
ATOM     39  C   UNL     1      61.555 159.885  41.147  0.00  0.00    +0.250 C 
ATOM     40  O   UNL     1      61.364 160.675  42.082  0.00  0.00    -0.270 OA
ATOM     41  H   UNL     1      60.785 158.556  39.740  0.00  0.00    +0.155 HD
BRANCH  39  42
ATOM     42  C   UNL     1      62.988 159.732  40.754  0.00  0.00    +0.058 C 
ATOM     43  C   UNL     1      63.370 160.295  39.646  0.00  0.00    +0.005 C 
ENDBRANCH  39  42
ENDBRANCH  37  38
ENDBRANCH  29  32
ENDBRANCH   1  26
TORSDOF 6
ENDMDL
