REMARK  Name = =
REMARK  6 active torsions:
REMARK  status: ('A' for Active; 'I' for Inactive)
REMARK    1  A    between atoms: C_1  and  C_18
REMARK    2  A    between atoms: C_1  and  N_26
REMARK    3  A    between atoms: C_20  and  O_24
REMARK    4  A    between atoms: C_29  and  C_32
REMARK    5  A    between atoms: C_37  and  N_38
REMARK    6  A    between atoms: C_39  and  C_41
REMARK                            x       y       z     vdW  Elec       q    Type
REMARK                         _______ _______ _______ _____ _____    ______ ____
ROOT
ATOM      1  C   UNL     1      52.021 156.305  28.564  0.00  0.00    +0.085 C 
ATOM      2  C   UNL     1      52.631 155.291  29.516  0.00  0.00    +0.021 C 
ATOM      3  C   UNL     1      53.224 154.161  28.700  0.00  0.00    +0.006 C 
ATOM      4  C   UNL     1      52.244 153.477  27.801  0.00  0.00    +0.018 C 
ATOM      5  C   UNL     1      52.964 152.598  26.855  0.00  0.00    +0.004 C 
ATOM      6  C   UNL     1      52.364 152.578  25.489  0.00  0.00    +0.005 C 
ATOM      7  C   UNL     1      52.884 151.526  24.588  0.00  0.00    +0.000 C 
ATOM      8  C   UNL     1      52.908 150.154  25.162  0.00  0.00    +0.000 C 
ATOM      9  C   UNL     1      54.138 149.455  24.629  0.00  0.00    +0.000 C 
ATOM     10  C   UNL     1      55.050 150.551  24.142  0.00  0.00    +0.000 C 
ATOM     11  C   UNL     1      54.289 151.845  24.170  0.00  0.00    +0.000 C 
ATOM     12  C   UNL     1      52.732 150.087  26.632  0.00  0.00    +0.000 C 
ATOM     13  C   UNL     1      53.294 151.239  27.391  0.00  0.00    +0.000 C 
ATOM     14  C   UNL     1      50.850 152.699  25.511  0.00  0.00    +0.025 C 
ATOM     15  C   UNL     1      50.573 154.026  26.134  0.00  0.00    -0.035 C 
ATOM     16  C   UNL     1      51.235 154.391  27.218  0.00  0.00    -0.047 C 
ATOM     17  C   UNL     1      50.904 155.717  27.772  0.00  0.00    +0.042 C 
ENDROOT
BRANCH   1  18
ATOM     18  C   UNL     1      53.105 156.740  27.640  0.00  0.00    +0.075 C 
ATOM     19  C   UNL     1      54.175 157.497  28.032  0.00  0.00    +0.056 C 
ATOM     20  C   UNL     1      55.130 157.858  27.110  0.00  0.00    +0.172 C 
ATOM     21  C   UNL     1      55.014 157.459  25.792  0.00  0.00    +0.060 C 
ATOM     22  C   UNL     1      53.933 156.694  25.407  0.00  0.00    +0.102 C 
ATOM     23  N   UNL     1      53.032 156.373  26.345  0.00  0.00    -0.247 NA
BRANCH  20  24
ATOM     24  O   UNL     1      56.238 158.622  27.427  0.00  0.00    -0.365 OA
ATOM     25  N   UNL     1      56.028 159.996  27.436  0.00  0.00    +0.111 NA
ENDBRANCH  20  24
ENDBRANCH   1  18
BRANCH   1  26
ATOM     26  N   UNL     1      51.602 157.443  29.302  0.00  0.00    -0.266 NA
ATOM     27  C   UNL     1      50.447 157.285  30.141  0.00  0.00    +0.077 C 
ATOM     28  C   UNL     1      49.498 158.507  29.995  0.00  0.00    +0.043 C 
ATOM     29  C   UNL     1      50.267 159.647  30.435  0.00  0.00    -0.023 C 
ATOM     30  C   UNL     1      51.400 159.747  29.656  0.00  0.00    -0.013 C 
ATOM     31  C   UNL     1      51.538 158.690  28.596  0.00  0.00    +0.099 C 
BRANCH  29  32
ATOM     32  C   UNL     1      50.132 160.652  31.439  0.00  0.00    +0.009 C 
ATOM     33  C   UNL     1      51.073 161.693  31.526  0.00  0.00    +0.001 C 
ATOM     34  C   UNL     1      50.998 162.716  32.452  0.00  0.00    +0.000 C 
ATOM     35  C   UNL     1      49.974 162.754  33.345  0.00  0.00    +0.001 C 
ATOM     36  C   UNL     1      49.040 161.762  33.296  0.00  0.00    +0.015 C 
ATOM     37  C   UNL     1      49.120 160.736  32.361  0.00  0.00    +0.050 C 
BRANCH  37  38
ATOM     38  N   UNL     1      48.151 159.718  32.462  0.00  0.00    -0.280 N 
ATOM     39  C   UNL     1      46.875 159.939  33.047  0.00  0.00    +0.250 C 
ATOM     40  O   UNL     1      46.494 161.015  33.528  0.00  0.00    -0.270 OA
ATOM     41  H   UNL     1      48.366 158.822  32.115  0.00  0.00    +0.155 HD
BRANCH  39  42
ATOM     42  C   UNL     1      45.862 158.844  33.112  0.00  0.00    +0.058 C 
ATOM     43  C   UNL     1      44.772 159.073  33.783  0.00  0.00    +0.005 C 
ENDBRANCH  39  42
ENDBRANCH  37  38
ENDBRANCH  29  32
ENDBRANCH   1  26
TORSDOF 6
