REMARK  Name = =
REMARK  0 active torsions:
REMARK  status: ('A' for Active; 'I' for Inactive)
REMARK                            x       y       z     vdW  Elec       q    Type
REMARK                         _______ _______ _______ _____ _____    ______ ____
ROOT
ATOM      1  C   UNL     1      52.065 155.568  27.626  0.00  0.00    +0.025 C 
ATOM      2  C   UNL     1      52.905 156.644  28.182  0.00  0.00    +0.005 C 
ATOM      3  C   UNL     1      52.483 157.194  29.539  0.00  0.00    +0.004 C 
ATOM      4  C   UNL     1      51.545 158.338  29.201  0.00  0.00    +0.001 C 
ATOM      5  C   UNL     1      50.844 158.959  30.335  0.00  0.00    +0.012 C 
ATOM      6  C   UNL     1      50.552 160.414  29.934  0.00  0.00    +0.057 C 
ATOM      7  C   UNL     1      50.146 161.156  31.159  0.00  0.00    +0.120 C 
ATOM      8  O   UNL     1      51.436 161.064  31.611  0.00  0.00    -0.356 OA
ATOM      9  C   UNL     1      51.833 161.204  30.258  0.00  0.00    +0.142 C 
ATOM     10  C   UNL     1      49.055 160.557  31.943  0.00  0.00    +0.030 C 
ATOM     11  C   UNL     1      48.972 159.080  31.953  0.00  0.00    +0.010 C 
ATOM     12  C   UNL     1      49.621 158.354  30.855  0.00  0.00    +0.058 C 
ATOM     13  C   UNL     1      48.799 157.531  29.985  0.00  0.00    +0.154 C 
ATOM     14  O   UNL     1      47.772 157.979  29.535  0.00  0.00    -0.296 OA
ATOM     15  C   UNL     1      49.023 156.097  29.509  0.00  0.00    +0.086 C 
ATOM     16  C   UNL     1      50.463 155.887  29.356  0.00  0.00    -0.041 C 
ATOM     17  C   UNL     1      50.671 155.482  28.126  0.00  0.00    -0.034 C 
ATOM     18  C   UNL     1      51.687 156.055  30.195  0.00  0.00    +0.022 C 
ENDROOT
TORSDOF 0
