REMARK  Name = =
REMARK  1 active torsions:
REMARK  status: ('A' for Active; 'I' for Inactive)
REMARK    1  A    between atoms: C_1  and  C_29
REMARK                            x       y       z     vdW  Elec       q    Type
REMARK                         _______ _______ _______ _____ _____    ______ ____
ROOT
ATOM      1  C   UNL     1      52.269 155.737  28.418  0.00  0.00    +0.024 C 
ATOM      2  C   UNL     1      53.050 156.608  29.323  0.00  0.00    +0.004 C 
ATOM      3  C   UNL     1      52.283 157.348  30.397  0.00  0.00    +0.000 C 
ATOM      4  C   UNL     1      51.448 158.464  29.745  0.00  0.00    +0.001 C 
ATOM      5  C   UNL     1      50.746 159.307  30.734  0.00  0.00    +0.012 C 
ATOM      6  C   UNL     1      50.689 160.774  30.375  0.00  0.00    +0.057 C 
ATOM      7  C   UNL     1      49.630 161.511  31.158  0.00  0.00    +0.120 C 
ATOM      8  O   UNL     1      48.703 161.133  30.191  0.00  0.00    -0.356 OA
ATOM      9  C   UNL     1      49.741 161.141  29.262  0.00  0.00    +0.142 C 
ATOM     10  C   UNL     1      49.358 160.899  32.515  0.00  0.00    +0.030 C 
ATOM     11  C   UNL     1      48.859 159.476  32.374  0.00  0.00    +0.010 C 
ATOM     12  C   UNL     1      49.496 158.750  31.240  0.00  0.00    +0.058 C 
ATOM     13  C   UNL     1      48.672 157.905  30.425  0.00  0.00    +0.150 C 
ATOM     14  O   UNL     1      47.535 158.253  30.296  0.00  0.00    -0.296 OA
ATOM     15  C   UNL     1      48.907 156.614  29.652  0.00  0.00    +0.064 C 
ATOM     16  C   UNL     1      50.310 156.217  29.817  0.00  0.00    +0.008 C 
ATOM     17  C   UNL     1      50.795 155.711  28.720  0.00  0.00    +0.005 C 
ATOM     18  C   UNL     1      51.291 156.325  30.963  0.00  0.00    +0.000 C 
ENDROOT
BRANCH   1  29
ATOM     19  C   UNL     1      54.654 152.806  23.376  0.00  0.00    +0.021 C 
ATOM     20  C   UNL     1      54.155 153.180  24.627  0.00  0.00    +0.099 A 
ATOM     21  N   UNL     1      54.085 152.272  25.603  0.00  0.00    -0.242 NA
ATOM     22  C   UNL     1      53.604 152.640  26.812  0.00  0.00    +0.099 A 
ATOM     23  C   UNL     1      53.188 153.939  27.044  0.00  0.00    +0.095 A 
ATOM     24  N   UNL     1      53.269 154.842  26.038  0.00  0.00    -0.243 NA
ATOM     25  C   UNL     1      53.745 154.480  24.838  0.00  0.00    +0.099 A 
ATOM     26  C   UNL     1      53.848 155.369  23.783  0.00  0.00    +0.021 C 
ATOM     27  C   UNL     1      54.334 155.002  22.563  0.00  0.00    +0.002 C 
ATOM     28  C   UNL     1      54.748 153.708  22.336  0.00  0.00    +0.002 C 
ATOM     29  C   UNL     1      52.696 154.345  28.290  0.00  0.00    -0.003 C 
ATOM     30  C   UNL     1      52.657 153.374  29.262  0.00  0.00    -0.003 C 
ATOM     31  C   UNL     1      53.072 152.065  29.045  0.00  0.00    +0.001 C 
ATOM     32  C   UNL     1      53.548 151.692  27.814  0.00  0.00    +0.021 C 
ENDBRANCH   1  29
TORSDOF 1
