REMARK  Name = =
REMARK  4 active torsions:
REMARK  status: ('A' for Active; 'I' for Inactive)
REMARK    1  A    between atoms: C_1  and  N_33
REMARK    2  A    between atoms: C_11  and  C_15
REMARK    3  A    between atoms: N_36  and  N_37
REMARK    4  A    between atoms: C_38  and  O_40
REMARK                            x       y       z     vdW  Elec       q    Type
REMARK                         _______ _______ _______ _____ _____    ______ ____
ROOT
ATOM      1  C   UNL     1      49.724 161.765  32.019  0.00  0.00    +0.071 C 
ATOM      2  C   UNL     1      49.948 160.484  31.456  0.00  0.00    +0.112 A 
ATOM      3  N   UNL     1      48.901 159.614  31.476  0.00  0.00    -0.241 NA
ATOM      4  C   UNL     1      49.046 158.386  30.873  0.00  0.00    +0.099 A 
ATOM      5  C   UNL     1      50.249 158.124  30.288  0.00  0.00    +0.095 A 
ATOM      6  N   UNL     1      51.294 158.974  30.265  0.00  0.00    -0.243 NA
ATOM      7  C   UNL     1      51.144 160.170  30.853  0.00  0.00    +0.100 A 
ATOM      8  C   UNL     1      52.162 161.118  30.793  0.00  0.00    +0.021 C 
ATOM      9  C   UNL     1      51.972 162.346  31.320  0.00  0.00    +0.003 C 
ATOM     10  C   UNL     1      50.755 162.656  31.928  0.00  0.00    +0.016 C 
ATOM     11  C   UNL     1      50.429 156.966  29.563  0.00  0.00    -0.003 C 
ATOM     12  C   UNL     1      49.389 156.083  29.433  0.00  0.00    -0.003 C 
ATOM     13  C   UNL     1      48.147 156.338  30.032  0.00  0.00    +0.001 C 
ATOM     14  C   UNL     1      47.977 157.494  30.757  0.00  0.00    +0.021 C 
ENDROOT
BRANCH  11  15
ATOM     15  C   UNL     1      51.761 156.619  29.095  0.00  0.00    +0.024 C 
ATOM     16  C   UNL     1      51.917 156.486  27.609  0.00  0.00    +0.004 C 
ATOM     17  C   UNL     1      53.472 156.450  27.354  0.00  0.00    +0.000 C 
ATOM     18  C   UNL     1      53.686 155.947  25.942  0.00  0.00    +0.001 C 
ATOM     19  C   UNL     1      54.001 154.439  25.983  0.00  0.00    +0.012 C 
ATOM     20  C   UNL     1      55.083 154.196  25.018  0.00  0.00    +0.057 C 
ATOM     21  C   UNL     1      55.026 153.007  24.158  0.00  0.00    +0.118 C 
ATOM     22  O   UNL     1      56.235 152.497  24.642  0.00  0.00    -0.356 OA
ATOM     23  C   UNL     1      56.244 153.450  25.646  0.00  0.00    +0.144 C 
ATOM     24  C   UNL     1      53.836 152.126  24.234  0.00  0.00    +0.030 C 
ATOM     25  C   UNL     1      52.599 152.877  24.629  0.00  0.00    +0.010 C 
ATOM     26  C   UNL     1      52.764 153.639  25.892  0.00  0.00    +0.058 C 
ATOM     27  C   UNL     1      52.412 152.894  27.083  0.00  0.00    +0.150 C 
ATOM     28  O   UNL     1      51.994 151.769  26.906  0.00  0.00    -0.296 OA
ATOM     29  C   UNL     1      52.428 153.167  28.572  0.00  0.00    +0.064 C 
ATOM     30  C   UNL     1      52.920 154.549  28.780  0.00  0.00    +0.008 C 
ATOM     31  C   UNL     1      52.070 155.173  29.577  0.00  0.00    +0.005 C 
ATOM     32  C   UNL     1      54.067 155.428  28.308  0.00  0.00    +0.000 C 
ENDBRANCH  11  15
BRANCH   1  33
ATOM     33  N   UNL     1      48.520 162.058  32.697  0.00  0.00    -0.266 N 
ATOM     34  C   UNL     1      47.915 163.344  32.690  0.00  0.00    +0.320 C 
ATOM     35  O   UNL     1      48.403 164.286  32.053  0.00  0.00    -0.251 OA
ATOM     36  N   UNL     1      46.704 163.639  33.419  0.00  0.00    -0.215 N 
ATOM     37  H   UNL     1      48.078 161.336  33.199  0.00  0.00    +0.157 HD
ATOM     38  H   UNL     1      46.253 162.939  33.944  0.00  0.00    +0.174 HD
BRANCH  36  39
ATOM     39  N   UNL     1      46.186 164.926  33.368  0.00  0.00    -0.199 N 
ATOM     40  C   UNL     1      45.836 165.650  34.534  0.00  0.00    +0.414 C 
ATOM     41  O   UNL     1      46.048 165.030  35.626  0.00  0.00    -0.225 OA
ATOM     42  H   UNL     1      46.057 165.351  32.489  0.00  0.00    +0.176 HD
BRANCH  40  43
ATOM     43  O   UNL     1      45.303 166.923  34.580  0.00  0.00    -0.465 OA
ATOM     44  H   UNL     1      45.141 167.392  33.785  0.00  0.00    +0.297 HD
ENDBRANCH  40  43
ENDBRANCH  36  39
ENDBRANCH   1  33
TORSDOF 4
