MODEL 1
REMARK VINA RESULT:     2.734      0.000      0.000
REMARK INTER + INTRA:          12.663
REMARK INTER:                   3.693
REMARK INTRA:                   8.969
REMARK UNBOUND:                 8.969
REMARK  Name = =
REMARK  7 active torsions:
REMARK  status: ('A' for Active; 'I' for Inactive)
REMARK    1  A    between atoms: C_1  and  C_19
REMARK    2  A    between atoms: C_2  and  S_38
REMARK    3  A    between atoms: C_30  and  S_33
REMARK    4  A    between atoms: S_33  and  P_34
REMARK    5  A    between atoms: P_34  and  O_36
REMARK    6  A    between atoms: P_34  and  O_37
REMARK    7  A    between atoms: S_38  and  C_39
REMARK                            x       y       z     vdW  Elec       q    Type
REMARK                         _______ _______ _______ _____ _____    ______ ____
ROOT
ATOM      1  C   UNL     1      53.135 156.443  27.324  0.00  0.00    +0.006 C 
ATOM      2  C   UNL     1      51.999 156.168  28.096  0.00  0.00    +0.035 C 
ATOM      3  C   UNL     1      51.610 156.937  29.151  0.00  0.00    -0.015 C 
ATOM      4  C   UNL     1      52.360 158.044  29.496  0.00  0.00    -0.021 C 
ATOM      5  C   UNL     1      53.479 158.360  28.775  0.00  0.00    -0.004 C 
ATOM      6  C   UNL     1      53.857 157.558  27.696  0.00  0.00    +0.000 C 
ATOM      7  C   UNL     1      51.969 158.863  30.650  0.00  0.00    +0.052 C 
ATOM      8  C   UNL     1      50.489 159.010  30.773  0.00  0.00    -0.026 C 
ATOM      9  C   UNL     1      49.779 157.933  30.432  0.00  0.00    -0.022 C 
ATOM     10  C   UNL     1      48.334 157.970  30.517  0.00  0.00    -0.005 C 
ATOM     11  C   UNL     1      47.670 159.072  30.937  0.00  0.00    -0.005 C 
ATOM     12  C   UNL     1      48.383 160.277  31.330  0.00  0.00    -0.026 C 
ATOM     13  C   UNL     1      49.810 160.197  31.212  0.00  0.00    -0.030 C 
ATOM     14  C   UNL     1      50.555 161.482  31.151  0.00  0.00    +0.026 C 
ATOM     15  C   UNL     1      49.884 162.577  31.950  0.00  0.00    +0.005 C 
ATOM     16  C   UNL     1      48.432 162.711  31.667  0.00  0.00    +0.005 C 
ATOM     17  C   UNL     1      47.846 161.583  30.848  0.00  0.00    +0.026 C 
ATOM     18  C   UNL     1      50.407 156.675  29.946  0.00  0.00    +0.053 C 
ENDROOT
BRANCH   1  19
ATOM     19  C   UNL     1      53.528 155.558  26.246  0.00  0.00    +0.000 C 
ATOM     20  C   UNL     1      53.300 154.204  26.259  0.00  0.00    +0.000 C 
ATOM     21  C   UNL     1      53.703 153.417  25.178  0.00  0.00    +0.000 C 
ATOM     22  C   UNL     1      54.331 154.020  24.095  0.00  0.00    +0.000 C 
ATOM     23  C   UNL     1      54.550 155.365  24.102  0.00  0.00    +0.000 C 
ATOM     24  C   UNL     1      54.172 156.165  25.139  0.00  0.00    +0.000 C 
ATOM     25  C   UNL     1      54.390 157.525  25.161  0.00  0.00    +0.000 C 
ATOM     26  C   UNL     1      55.021 158.111  24.087  0.00  0.00    +0.000 C 
ATOM     27  C   UNL     1      55.394 157.303  23.054  0.00  0.00    +0.000 C 
ATOM     28  C   UNL     1      55.194 155.950  22.999  0.00  0.00    +0.000 C 
ATOM     29  C   UNL     1      53.473 152.072  25.191  0.00  0.00    +0.007 C 
ATOM     30  C   UNL     1      52.837 151.453  26.277  0.00  0.00    +0.036 C 
ATOM     31  C   UNL     1      52.444 152.233  27.336  0.00  0.00    +0.007 C 
ATOM     32  C   UNL     1      52.682 153.622  27.316  0.00  0.00    +0.001 C 
BRANCH  30  33
ATOM     33  S   UNL     1      52.619 149.675  26.200  0.00  0.00    -0.004 S 
BRANCH  33  34
ATOM     34  P   UNL     1      53.730 148.910  24.542  0.00  0.00    +0.391 P 
ATOM     35  O   UNL     1      55.122 148.511  25.004  0.00  0.00    -0.246 OA
BRANCH  34  36
ATOM     36  O   UNL     1      53.903 150.089  23.332  0.00  0.00    -0.316 OA
ATOM     37  H   UNL     1      54.650 149.857  22.759  0.00  0.00    +0.221 HD
ENDBRANCH  34  36
BRANCH  34  38
ATOM     38  O   UNL     1      52.987 147.554  23.879  0.00  0.00    -0.316 OA
ATOM     39  H   UNL     1      52.150 147.814  23.465  0.00  0.00    +0.221 HD
ENDBRANCH  34  38
ENDBRANCH  33  34
ENDBRANCH  30  33
ENDBRANCH   1  19
BRANCH   2  40
ATOM     40  S   UNL     1      51.045 154.734  27.659  0.00  0.00    -0.009 S 
BRANCH  40  41
ATOM     41  C   UNL     1      50.912 153.704  29.098  0.00  0.00    +0.138 C 
ATOM     42  N   UNL     1      50.836 153.038  30.046  0.00  0.00    -0.183 NA
ENDBRANCH  40  41
ENDBRANCH   2  40
TORSDOF 7
ENDMDL
