REMARK  Name = =
REMARK  7 active torsions:
REMARK  status: ('A' for Active; 'I' for Inactive)
REMARK    1  A    between atoms: C_1  and  C_19
REMARK    2  A    between atoms: C_2  and  S_38
REMARK    3  A    between atoms: C_30  and  S_33
REMARK    4  A    between atoms: S_33  and  P_34
REMARK    5  A    between atoms: P_34  and  O_36
REMARK    6  A    between atoms: P_34  and  O_37
REMARK    7  A    between atoms: S_38  and  C_39
REMARK                            x       y       z     vdW  Elec       q    Type
REMARK                         _______ _______ _______ _____ _____    ______ ____
ROOT
ATOM      1  C   UNL     1      48.190 162.894  32.029  0.00  0.00    +0.006 C 
ATOM      2  C   UNL     1      47.670 163.545  33.154  0.00  0.00    +0.035 C 
ATOM      3  C   UNL     1      46.698 164.497  33.082  0.00  0.00    -0.015 C 
ATOM      4  C   UNL     1      46.190 164.855  31.849  0.00  0.00    -0.021 C 
ATOM      5  C   UNL     1      46.662 164.250  30.716  0.00  0.00    -0.004 C 
ATOM      6  C   UNL     1      47.657 163.275  30.815  0.00  0.00    +0.000 C 
ATOM      7  C   UNL     1      45.165 165.902  31.755  0.00  0.00    +0.052 C 
ATOM      8  C   UNL     1      44.182 165.844  32.876  0.00  0.00    -0.026 C 
ATOM      9  C   UNL     1      44.688 165.492  34.060  0.00  0.00    -0.022 C 
ATOM     10  C   UNL     1      43.819 165.407  35.215  0.00  0.00    -0.005 C 
ATOM     11  C   UNL     1      42.495 165.677  35.135  0.00  0.00    -0.005 C 
ATOM     12  C   UNL     1      41.881 166.072  33.877  0.00  0.00    -0.026 C 
ATOM     13  C   UNL     1      42.779 166.125  32.760  0.00  0.00    -0.030 C 
ATOM     14  C   UNL     1      42.172 166.069  31.404  0.00  0.00    +0.026 C 
ATOM     15  C   UNL     1      40.805 166.714  31.356  0.00  0.00    +0.005 C 
ATOM     16  C   UNL     1      39.897 166.257  32.439  0.00  0.00    +0.005 C 
ATOM     17  C   UNL     1      40.572 165.450  33.525  0.00  0.00    +0.026 C 
ATOM     18  C   UNL     1      46.126 165.163  34.255  0.00  0.00    +0.053 C 
ENDROOT
BRANCH   1  19
ATOM     19  C   UNL     1      49.261 161.927  32.164  0.00  0.00    +0.000 C 
ATOM     20  C   UNL     1      49.047 160.590  32.391  0.00  0.00    +0.000 C 
ATOM     21  C   UNL     1      50.132 159.718  32.503  0.00  0.00    +0.000 C 
ATOM     22  C   UNL     1      51.423 160.218  32.379  0.00  0.00    +0.000 C 
ATOM     23  C   UNL     1      51.614 161.549  32.156  0.00  0.00    +0.000 C 
ATOM     24  C   UNL     1      50.580 162.430  32.042  0.00  0.00    +0.000 C 
ATOM     25  C   UNL     1      50.759 163.778  31.820  0.00  0.00    +0.000 C 
ATOM     26  C   UNL     1      52.042 164.265  31.707  0.00  0.00    +0.000 C 
ATOM     27  C   UNL     1      53.069 163.376  31.821  0.00  0.00    +0.000 C 
ATOM     28  C   UNL     1      52.928 162.032  32.042  0.00  0.00    +0.000 C 
ATOM     29  C   UNL     1      49.918 158.388  32.726  0.00  0.00    +0.007 C 
ATOM     30  C   UNL     1      48.620 157.871  32.849  0.00  0.00    +0.036 C 
ATOM     31  C   UNL     1      47.559 158.734  32.738  0.00  0.00    +0.007 C 
ATOM     32  C   UNL     1      47.786 160.106  32.506  0.00  0.00    +0.001 C 
BRANCH  30  33
ATOM     33  S   UNL     1      48.461 156.115  33.175  0.00  0.00    -0.004 S 
BRANCH  33  34
ATOM     34  P   UNL     1      49.749 155.590  34.797  0.00  0.00    +0.391 P 
ATOM     35  O   UNL     1      49.400 156.429  36.016  0.00  0.00    -0.246 OA
BRANCH  34  36
ATOM     36  O   UNL     1      51.373 155.894  34.405  0.00  0.00    -0.316 OA
ATOM     37  H   UNL     1      51.622 155.369  33.628  0.00  0.00    +0.221 HD
ENDBRANCH  34  36
BRANCH  34  38
ATOM     38  O   UNL     1      49.583 153.967  35.211  0.00  0.00    -0.316 OA
ATOM     39  H   UNL     1      48.658 153.784  35.437  0.00  0.00    +0.221 HD
ENDBRANCH  34  38
ENDBRANCH  33  34
ENDBRANCH  30  33
ENDBRANCH   1  19
BRANCH   2  40
ATOM     40  S   UNL     1      48.337 163.093  34.738  0.00  0.00    -0.009 S 
BRANCH  40  41
ATOM     41  C   UNL     1      46.994 163.010  35.895  0.00  0.00    +0.138 C 
ATOM     42  N   UNL     1      46.122 162.944  36.658  0.00  0.00    -0.183 NA
ENDBRANCH  40  41
ENDBRANCH   2  40
TORSDOF 7
