REMARK  Name = =
REMARK  1 active torsions:
REMARK  status: ('A' for Active; 'I' for Inactive)
REMARK    1  A    between atoms: C_7  and  C_8
REMARK                            x       y       z     vdW  Elec       q    Type
REMARK                         _______ _______ _______ _____ _____    ______ ____
ROOT
ATOM      1  C   UNL     1      53.424 155.527  24.904  0.00  0.00    +0.000 C 
ATOM      2  C   UNL     1      54.857 155.154  24.945  0.00  0.00    +0.000 C 
ATOM      3  C   UNL     1      55.250 154.603  23.577  0.00  0.00    +0.000 C 
ATOM      4  C   UNL     1      55.028 153.089  23.672  0.00  0.00    +0.000 C 
ATOM      5  C   UNL     1      53.506 152.911  23.644  0.00  0.00    +0.000 C 
ATOM      6  C   UNL     1      52.887 153.075  24.987  0.00  0.00    +0.000 C 
ATOM      7  C   UNL     1      52.456 154.478  25.304  0.00  0.00    +0.000 C 
ENDROOT
BRANCH   7   8
ATOM      8  C   UNL     1      52.145 154.506  26.781  0.00  0.00    +0.000 C 
ATOM      9  C   UNL     1      51.096 155.095  27.345  0.00  0.00    +0.000 C 
ATOM     10  C   UNL     1      51.110 154.919  28.818  0.00  0.00    +0.000 C 
ATOM     11  C   UNL     1      51.921 153.620  28.927  0.00  0.00    +0.000 C 
ATOM     12  C   UNL     1      52.957 153.880  27.854  0.00  0.00    +0.000 C 
ENDBRANCH   7   8
TORSDOF 1
