REMARK  Name = =
REMARK  2 active torsions:
REMARK  status: ('A' for Active; 'I' for Inactive)
REMARK    1  A    between atoms: C_1  and  C_12
REMARK    2  A    between atoms: C_5  and  N_13
REMARK                            x       y       z     vdW  Elec       q    Type
REMARK                         _______ _______ _______ _____ _____    ______ ____
ROOT
ATOM      1  C   UNL     1      52.348 154.781  26.861  0.00  0.00    +0.015 C 
ATOM      2  C   UNL     1      51.671 155.780  27.393  0.00  0.00    +0.001 C 
ATOM      3  C   UNL     1      51.262 155.481  28.777  0.00  0.00    +0.001 C 
ATOM      4  C   UNL     1      51.563 153.998  28.936  0.00  0.00    +0.016 C 
ATOM      5  C   UNL     1      52.541 153.736  27.867  0.00  0.00    +0.058 C 
ENDROOT
BRANCH   1  12
ATOM      6  C   UNL     1      52.815 156.111  24.795  0.00  0.00    +0.000 C 
ATOM      7  C   UNL     1      54.023 156.963  25.227  0.00  0.00    +0.000 C 
ATOM      8  C   UNL     1      54.996 156.946  24.077  0.00  0.00    +0.000 C 
ATOM      9  C   UNL     1      55.658 155.624  23.879  0.00  0.00    +0.000 C 
ATOM     10  C   UNL     1      54.742 154.439  23.921  0.00  0.00    +0.000 C 
ATOM     11  C   UNL     1      54.249 154.138  25.336  0.00  0.00    +0.000 C 
ATOM     12  C   UNL     1      52.898 154.772  25.453  0.00  0.00    +0.001 C 
ENDBRANCH   1  12
BRANCH   5  13
ATOM     13  N   UNL     1      52.720 152.409  27.437  0.00  0.00    -0.272 NA
ATOM     14  C   UNL     1      52.692 151.431  28.507  0.00  0.00    +0.091 C 
ATOM     15  C   UNL     1      51.310 150.795  28.427  0.00  0.00    +0.106 C 
ATOM     16  N   UNL     1      51.313 150.032  27.227  0.00  0.00    -0.215 NA
ATOM     17  C   UNL     1      52.201 150.458  26.203  0.00  0.00    +0.106 C 
ATOM     18  C   UNL     1      52.168 151.983  26.214  0.00  0.00    +0.091 C 
ENDBRANCH   5  13
TORSDOF 2
