REMARK  Name = =
REMARK  3 active torsions:
REMARK  status: ('A' for Active; 'I' for Inactive)
REMARK    1  A    between atoms: N_1  and  C_20
REMARK    2  A    between atoms: C_6  and  N_7
REMARK    3  A    between atoms: C_16  and  C_27
REMARK                            x       y       z     vdW  Elec       q    Type
REMARK                         _______ _______ _______ _____ _____    ______ ____
ROOT
ATOM      1  N   UNL     1      52.878 153.465  26.325  0.00  0.00    -0.257 NA
ATOM      2  C   UNL     1      51.858 153.973  27.224  0.00  0.00    +0.092 C 
ATOM      3  C   UNL     1      50.845 152.970  27.676  0.00  0.00    +0.106 C 
ATOM      4  N   UNL     1      51.531 151.791  28.050  0.00  0.00    -0.213 NA
ATOM      5  C   UNL     1      52.896 151.930  28.254  0.00  0.00    +0.126 C 
ATOM      6  C   UNL     1      53.524 152.310  26.874  0.00  0.00    +0.162 C 
ENDROOT
BRANCH   6   7
ATOM      7  N   UNL     1      53.507 151.111  26.120  0.00  0.00    -0.200 N 
ATOM      8  C   UNL     1      54.503 150.946  25.080  0.00  0.00    +0.316 C 
ATOM      9  O   UNL     1      55.362 151.836  24.856  0.00  0.00    -0.252 OA
ATOM     10  N   UNL     1      54.563 149.781  24.266  0.00  0.00    -0.239 N 
ATOM     11  C   UNL     1      53.641 148.726  24.444  0.00  0.00    +0.239 C 
ATOM     12  O   UNL     1      53.396 147.903  23.561  0.00  0.00    -0.274 OA
ATOM     13  C   UNL     1      52.963 148.649  25.766  0.00  0.00    +0.171 C 
ATOM     14  C   UNL     1      52.616 150.030  26.246  0.00  0.00    +0.243 C 
ATOM     15  O   UNL     1      51.501 150.196  26.767  0.00  0.00    -0.274 OA
ATOM     16  H   UNL     1      55.256 149.709  23.570  0.00  0.00    +0.159 HD
ENDBRANCH   6   7
BRANCH   1  21
ATOM     17  C   UNL     1      53.498 155.865  26.083  0.00  0.00    +0.015 C 
ATOM     18  C   UNL     1      52.946 156.000  24.850  0.00  0.00    +0.001 C 
ATOM     19  C   UNL     1      53.034 154.663  24.140  0.00  0.00    +0.001 C 
ATOM     20  C   UNL     1      54.419 154.239  24.748  0.00  0.00    +0.016 C 
ATOM     21  C   UNL     1      53.944 154.484  26.225  0.00  0.00    +0.059 C 
BRANCH  17  28
ATOM     22  C   UNL     1      53.350 156.754  28.460  0.00  0.00    +0.000 C 
ATOM     23  C   UNL     1      53.289 158.115  29.197  0.00  0.00    +0.000 C 
ATOM     24  C   UNL     1      54.705 158.499  29.499  0.00  0.00    +0.000 C 
ATOM     25  C   UNL     1      55.175 159.575  28.535  0.00  0.00    +0.000 C 
ATOM     26  C   UNL     1      54.936 159.165  27.101  0.00  0.00    +0.000 C 
ATOM     27  C   UNL     1      54.951 157.688  26.906  0.00  0.00    +0.000 C 
ATOM     28  C   UNL     1      53.571 157.038  27.028  0.00  0.00    +0.001 C 
ENDBRANCH  17  28
ENDBRANCH   1  21
TORSDOF 3
