REMARK  Name = =
REMARK  0 active torsions:
REMARK  status: ('A' for Active; 'I' for Inactive)
REMARK                            x       y       z     vdW  Elec       q    Type
REMARK                         _______ _______ _______ _____ _____    ______ ____
ROOT
ATOM      1  C   UNL     1      50.637 157.659  29.799  0.00  0.00    +0.026 C 
ATOM      2  C   UNL     1      49.254 157.130  29.960  0.00  0.00    +0.005 C 
ATOM      3  C   UNL     1      48.407 157.925  30.930  0.00  0.00    +0.005 C 
ATOM      4  C   UNL     1      48.329 159.343  30.382  0.00  0.00    +0.026 C 
ATOM      5  C   UNL     1      49.710 159.901  30.492  0.00  0.00    -0.026 C 
ATOM      6  C   UNL     1      50.786 159.082  30.210  0.00  0.00    -0.026 C 
ATOM      7  C   UNL     1      52.074 159.583  30.307  0.00  0.00    -0.005 C 
ATOM      8  C   UNL     1      52.209 160.901  30.688  0.00  0.00    -0.000 C 
ATOM      9  C   UNL     1      51.130 161.719  30.969  0.00  0.00    -0.000 C 
ATOM     10  C   UNL     1      49.864 161.209  30.869  0.00  0.00    -0.005 C 
ENDROOT
TORSDOF 0
