REMARK  Name = =
REMARK  1 active torsions:
REMARK  status: ('A' for Active; 'I' for Inactive)
REMARK    1  A    between atoms: S_1  and  S_2
REMARK                            x       y       z     vdW  Elec       q    Type
REMARK                         _______ _______ _______ _____ _____    ______ ____
ROOT
ATOM      1  S   UNL     1      52.418 156.188  28.599  0.00  0.00    -0.114 S 
ATOM      2  H   UNL     1      52.474 157.348  27.892  0.00  0.00    +0.114 HD
ENDROOT
BRANCH   1   3
ATOM      3  S   UNL     1      50.636 156.146  29.750  0.00  0.00    -0.114 S 
ATOM      4  H   UNL     1      50.580 154.986  30.457  0.00  0.00    +0.114 HD
ENDBRANCH   1   3
TORSDOF 1
