REMARK  Name = =
REMARK  5 active torsions:
REMARK  status: ('A' for Active; 'I' for Inactive)
REMARK    1  A    between atoms: S_1  and  C_17
REMARK    2  A    between atoms: C_2  and  C_7
REMARK    3  A    between atoms: N_18  and  N_19
REMARK    4  A    between atoms: N_19  and  C_20
REMARK    5  A    between atoms: C_20  and  N_22
REMARK                            x       y       z     vdW  Elec       q    Type
REMARK                         _______ _______ _______ _____ _____    ______ ____
ROOT
ATOM      1  S   UNL     1      50.299 159.370  30.667  0.00  0.00    -0.189 S 
ATOM      2  C   UNL     1      50.555 158.313  29.284  0.00  0.00    +0.037 C 
ATOM      3  C   UNL     1      49.360 157.576  28.861  0.00  0.00    +0.010 C 
ATOM      4  C   UNL     1      48.408 157.075  29.869  0.00  0.00    +0.002 C 
ATOM      5  C   UNL     1      48.371 157.706  31.192  0.00  0.00    +0.010 C 
ATOM      6  C   UNL     1      49.623 158.199  31.796  0.00  0.00    +0.042 C 
ATOM      7  H   UNL     1      49.486 160.438  30.449  0.00  0.00    +0.090 HD
ENDROOT
BRANCH   2   8
ATOM      8  C   UNL     1      51.826 157.539  29.489  0.00  0.00    +0.031 C 
ATOM      9  C   UNL     1      52.990 158.195  28.838  0.00  0.00    +0.005 C 
ATOM     10  C   UNL     1      53.780 157.449  27.834  0.00  0.00    +0.005 C 
ATOM     11  C   UNL     1      52.857 156.577  26.993  0.00  0.00    +0.026 C 
ATOM     12  C   UNL     1      52.201 155.627  27.987  0.00  0.00    -0.026 C 
ATOM     13  C   UNL     1      51.751 156.117  29.190  0.00  0.00    -0.026 C 
ATOM     14  C   UNL     1      51.205 155.228  30.093  0.00  0.00    -0.005 C 
ATOM     15  C   UNL     1      51.122 153.901  29.776  0.00  0.00    -0.000 C 
ATOM     16  C   UNL     1      51.563 153.386  28.578  0.00  0.00    -0.000 C 
ATOM     17  C   UNL     1      52.108 154.304  27.690  0.00  0.00    -0.005 C 
ENDBRANCH   2   8
BRANCH   1  18
ATOM     18  C   UNL     1      51.697 160.359  31.187  0.00  0.00    +0.128 C 
ATOM     19  N   UNL     1      52.067 161.405  30.570  0.00  0.00    -0.173 NA
BRANCH  19  20
ATOM     20  N   UNL     1      53.128 162.208  30.915  0.00  0.00    -0.218 N 
ATOM     21  H   UNL     1      54.038 161.977  30.618  0.00  0.00    +0.176 HD
BRANCH  20  22
ATOM     22  C   UNL     1      52.911 163.359  31.692  0.00  0.00    +0.147 C 
ATOM     23  S   UNL     1      51.536 163.557  32.517  0.00  0.00    -0.017 S 
BRANCH  22  24
ATOM     24  N   UNL     1      53.909 164.360  31.755  0.00  0.00    -0.339 N 
ATOM     25  H   UNL     1      54.750 164.249  31.256  0.00  0.00    +0.144 HD
ATOM     26  H   UNL     1      53.762 165.168  32.298  0.00  0.00    +0.144 HD
ENDBRANCH  22  24
ENDBRANCH  20  22
ENDBRANCH  19  20
ENDBRANCH   1  18
TORSDOF 5
