REMARK  Name = =
REMARK  8 active torsions:
REMARK  status: ('A' for Active; 'I' for Inactive)
REMARK    1  A    between atoms: C_1  and  C_12
REMARK    2  A    between atoms: C_3  and  C_23
REMARK    3  A    between atoms: S_11  and  C_17
REMARK    4  A    between atoms: N_18  and  N_19
REMARK    5  A    between atoms: N_19  and  C_20
REMARK    6  A    between atoms: C_20  and  N_22
REMARK    7  A    between atoms: C_23  and  C_25
REMARK    8  A    between atoms: C_26  and  O_31
REMARK                            x       y       z     vdW  Elec       q    Type
REMARK                         _______ _______ _______ _____ _____    ______ ____
ROOT
ATOM      1  C   UNL     1      51.006 158.472  28.996  0.00  0.00    +0.031 C 
ATOM      2  C   UNL     1      51.162 156.999  29.291  0.00  0.00    +0.013 C 
ATOM      3  C   UNL     1      51.970 156.408  28.122  0.00  0.00    +0.067 C 
ATOM      4  C   UNL     1      53.083 157.328  27.681  0.00  0.00    +0.034 C 
ATOM      5  C   UNL     1      53.388 158.422  28.612  0.00  0.00    -0.026 C 
ATOM      6  C   UNL     1      52.345 159.043  29.307  0.00  0.00    -0.026 C 
ATOM      7  C   UNL     1      52.642 160.040  30.158  0.00  0.00    -0.005 C 
ATOM      8  C   UNL     1      53.938 160.475  30.371  0.00  0.00    -0.000 C 
ATOM      9  C   UNL     1      54.960 159.865  29.688  0.00  0.00    -0.000 C 
ATOM     10  C   UNL     1      54.672 158.835  28.806  0.00  0.00    -0.005 C 
ENDROOT
BRANCH   1  12
ATOM     11  S   UNL     1      50.330 159.596  31.381  0.00  0.00    -0.189 S 
ATOM     12  C   UNL     1      49.922 159.175  29.727  0.00  0.00    +0.037 C 
ATOM     13  C   UNL     1      48.819 158.125  29.891  0.00  0.00    +0.010 C 
ATOM     14  C   UNL     1      47.546 158.705  30.392  0.00  0.00    +0.002 C 
ATOM     15  C   UNL     1      47.676 159.169  31.830  0.00  0.00    +0.010 C 
ATOM     16  C   UNL     1      48.747 160.191  32.001  0.00  0.00    +0.042 C 
ATOM     17  H   UNL     1      50.902 158.520  31.985  0.00  0.00    +0.090 HD
BRANCH  11  18
ATOM     18  C   UNL     1      51.573 160.902  31.645  0.00  0.00    +0.128 C 
ATOM     19  N   UNL     1      51.117 162.081  31.871  0.00  0.00    -0.173 NA
BRANCH  19  20
ATOM     20  N   UNL     1      52.051 163.095  32.076  0.00  0.00    -0.218 N 
ATOM     21  H   UNL     1      51.952 163.707  32.841  0.00  0.00    +0.176 HD
BRANCH  20  22
ATOM     22  C   UNL     1      53.134 163.246  31.194  0.00  0.00    +0.147 C 
ATOM     23  S   UNL     1      54.644 162.991  31.719  0.00  0.00    -0.017 S 
BRANCH  22  24
ATOM     24  N   UNL     1      52.916 163.626  29.837  0.00  0.00    -0.339 N 
ATOM     25  H   UNL     1      53.681 163.730  29.226  0.00  0.00    +0.144 HD
ATOM     26  H   UNL     1      52.001 163.785  29.511  0.00  0.00    +0.144 HD
ENDBRANCH  22  24
ENDBRANCH  20  22
ENDBRANCH  19  20
ENDBRANCH  11  18
ENDBRANCH   1  12
BRANCH   3  27
ATOM     27  C   UNL     1      52.585 155.111  28.551  0.00  0.00    +0.176 C 
ATOM     28  O   UNL     1      52.788 154.964  29.770  0.00  0.00    -0.291 OA
BRANCH  27  29
ATOM     29  C   UNL     1      52.909 154.130  27.553  0.00  0.00    +0.068 C 
ATOM     30  C   UNL     1      52.703 154.345  26.197  0.00  0.00    +0.136 C 
ATOM     31  C   UNL     1      53.064 153.374  25.249  0.00  0.00    +0.037 C 
ATOM     32  C   UNL     1      53.626 152.210  25.691  0.00  0.00    +0.003 C 
ATOM     33  C   UNL     1      53.832 151.986  27.013  0.00  0.00    +0.000 C 
ATOM     34  C   UNL     1      53.487 152.919  27.953  0.00  0.00    +0.006 C 
BRANCH  30  35
ATOM     35  O   UNL     1      52.149 155.477  25.690  0.00  0.00    -0.505 OA
ATOM     36  H   UNL     1      51.884 156.167  26.266  0.00  0.00    +0.292 HD
ENDBRANCH  30  35
ENDBRANCH  27  29
ENDBRANCH   3  27
TORSDOF 8
