REMARK  Name = =
REMARK  4 active torsions:
REMARK  status: ('A' for Active; 'I' for Inactive)
REMARK    1  A    between atoms: C_1  and  C_10
REMARK    2  A    between atoms: O_4  and  S_7
REMARK    3  A    between atoms: S_7  and  C_8
REMARK    4  A    between atoms: C_10  and  C_13
REMARK                            x       y       z     vdW  Elec       q    Type
REMARK                         _______ _______ _______ _____ _____    ______ ____
ROOT
ATOM      1  N   UNL     1      53.469 156.523  26.866  0.00  0.00    -0.202 NA
ATOM      2  C   UNL     1      52.527 156.408  27.788  0.00  0.00    +0.203 C 
ATOM      3  N   UNL     1      51.801 155.277  27.837  0.00  0.00    -0.202 NA
ATOM      4  C   UNL     1      52.017 154.266  26.964  0.00  0.00    +0.202 C 
ATOM      5  N   UNL     1      52.977 154.401  26.034  0.00  0.00    -0.202 NA
ATOM      6  C   UNL     1      53.702 155.515  25.977  0.00  0.00    +0.202 C 
ENDROOT
BRANCH   2   7
ATOM      7  C   UNL     1      52.231 157.451  28.766  0.00  0.00    +0.242 C 
ATOM      8  O   UNL     1      53.080 158.380  28.892  0.00  0.00    -0.285 OA
BRANCH   7   9
ATOM      9  C   UNL     1      51.008 157.429  29.566  0.00  0.00    +0.254 C 
ATOM     10  O   UNL     1      50.639 156.265  29.909  0.00  0.00    -0.211 OA
ENDBRANCH   7   9
ENDBRANCH   2   7
TORSDOF 2
REMARK  Name = =
REMARK  4 active torsions:
REMARK  status: ('A' for Active; 'I' for Inactive)
REMARK    1  A    between atoms: C_1  and  C_10
REMARK    2  A    between atoms: O_4  and  S_7
REMARK    3  A    between atoms: S_7  and  C_8
REMARK    4  A    between atoms: C_10  and  C_13
REMARK                            x       y       z     vdW  Elec       q    Type
REMARK                         _______ _______ _______ _____ _____    ______ ____
ROOT
ATOM      1  P   UNL     1      50.225 158.927  29.947  0.00  0.00    +0.000 P 
ENDROOT
TORSDOF 0
REMARK  Name = =
REMARK  4 active torsions:
REMARK  status: ('A' for Active; 'I' for Inactive)
REMARK    1  A    between atoms: C_1  and  C_10
REMARK    2  A    between atoms: O_4  and  S_7
REMARK    3  A    between atoms: S_7  and  C_8
REMARK    4  A    between atoms: C_10  and  C_13
REMARK                            x       y       z     vdW  Elec       q    Type
REMARK                         _______ _______ _______ _____ _____    ______ ____
ROOT
ATOM      1  S   UNL     1      50.568 160.120  31.654  0.00  0.00    +0.074 S 
ENDROOT
BRANCH   1   2
ATOM      2  O   UNL     1      50.604 158.511  31.359  0.00  0.00    -0.322 OA
ATOM      3  H   UNL     1      51.525 158.215  31.294  0.00  0.00    +0.228 HD
ENDBRANCH   1   2
BRANCH   1   4
ATOM      4  C   UNL     1      49.053 161.078  31.847  0.00  0.00    +0.294 C 
ATOM      5  O   UNL     1      48.131 160.669  32.532  0.00  0.00    -0.273 OA
ENDBRANCH   1   4
TORSDOF 2
REMARK  Name = =
REMARK  4 active torsions:
REMARK  status: ('A' for Active; 'I' for Inactive)
REMARK    1  A    between atoms: C_1  and  C_10
REMARK    2  A    between atoms: O_4  and  S_7
REMARK    3  A    between atoms: S_7  and  C_8
REMARK    4  A    between atoms: C_10  and  C_13
REMARK                            x       y       z     vdW  Elec       q    Type
REMARK                         _______ _______ _______ _____ _____    ______ ____
ROOT
ATOM      1  O   HOH     1      50.609 160.098  28.774  0.00  0.00    -0.253 OA
ATOM      2  H   HOH     0      51.579 160.098  28.774  0.00  0.00    +0.253 HD
ENDROOT
TORSDOF 0
REMARK  Name = =
REMARK  4 active torsions:
REMARK  status: ('A' for Active; 'I' for Inactive)
REMARK    1  A    between atoms: C_1  and  C_10
REMARK    2  A    between atoms: O_4  and  S_7
REMARK    3  A    between atoms: S_7  and  C_8
REMARK    4  A    between atoms: C_10  and  C_13
REMARK                            x       y       z     vdW  Elec       q    Type
REMARK                         _______ _______ _______ _____ _____    ______ ____
ROOT
ATOM      1  O   HOH     1      48.696 158.364  30.476  0.00  0.00    -0.253 OA
ATOM      2  H   HOH     0      49.666 158.364  30.476  0.00  0.00    +0.253 HD
ENDROOT
TORSDOF 0
