REMARK  Name = =
REMARK  11 active torsions:
REMARK  status: ('A' for Active; 'I' for Inactive)
REMARK    1  A    between atoms: C_1  and  C_12
REMARK    2  A    between atoms: C_3  and  C_33
REMARK    3  A    between atoms: C_9  and  N_23
REMARK    4  A    between atoms: S_11  and  C_17
REMARK    5  A    between atoms: N_18  and  N_19
REMARK    6  A    between atoms: N_19  and  C_20
REMARK    7  A    between atoms: C_20  and  N_22
REMARK    8  A    between atoms: C_24  and  C_26
REMARK    9  A    between atoms: C_27  and  O_32
REMARK   10  A    between atoms: C_33  and  C_35
REMARK   11  A    between atoms: C_36  and  O_41
REMARK                            x       y       z     vdW  Elec       q    Type
REMARK                         _______ _______ _______ _____ _____    ______ ____
ROOT
ATOM      1  C   UNL     1      50.549 160.089  29.973  0.00  0.00    +0.031 C 
ATOM      2  C   UNL     1      51.306 160.665  31.133  0.00  0.00    +0.008 C 
ATOM      3  C   UNL     1      52.695 160.072  31.330  0.00  0.00    +0.040 C 
ATOM      4  C   UNL     1      53.225 159.633  29.971  0.00  0.00    +0.029 C 
ATOM      5  C   UNL     1      52.363 158.514  29.495  0.00  0.00    -0.025 C 
ATOM      6  C   UNL     1      50.983 158.789  29.507  0.00  0.00    -0.026 C 
ATOM      7  C   UNL     1      50.119 157.826  29.084  0.00  0.00    -0.003 C 
ATOM      8  C   UNL     1      50.625 156.621  28.660  0.00  0.00    +0.014 C 
ATOM      9  C   UNL     1      51.993 156.318  28.637  0.00  0.00    +0.050 C 
ATOM     10  C   UNL     1      52.837 157.303  29.068  0.00  0.00    +0.010 C 
ENDROOT
BRANCH   1  12
ATOM     11  S   UNL     1      48.895 160.866  31.831  0.00  0.00    -0.189 S 
ATOM     12  C   UNL     1      49.062 160.197  30.224  0.00  0.00    +0.037 C 
ATOM     13  C   UNL     1      48.302 158.930  30.047  0.00  0.00    +0.010 C 
ATOM     14  C   UNL     1      47.170 158.923  31.087  0.00  0.00    +0.002 C 
ATOM     15  C   UNL     1      47.761 158.464  32.380  0.00  0.00    +0.010 C 
ATOM     16  C   UNL     1      48.607 159.563  32.945  0.00  0.00    +0.042 C 
ATOM     17  H   UNL     1      47.806 161.680  31.819  0.00  0.00    +0.090 HD
BRANCH  11  18
ATOM     18  C   UNL     1      50.095 162.070  32.336  0.00  0.00    +0.128 C 
ATOM     19  N   UNL     1      49.790 163.085  33.071  0.00  0.00    -0.173 NA
BRANCH  19  20
ATOM     20  N   UNL     1      48.447 163.201  33.463  0.00  0.00    -0.218 N 
ATOM     21  H   UNL     1      47.806 163.692  32.900  0.00  0.00    +0.176 HD
BRANCH  20  22
ATOM     22  C   UNL     1      48.018 162.598  34.690  0.00  0.00    +0.147 C 
ATOM     23  S   UNL     1      47.204 163.467  35.805  0.00  0.00    -0.017 S 
BRANCH  22  24
ATOM     24  N   UNL     1      48.285 161.232  34.971  0.00  0.00    -0.339 N 
ATOM     25  H   UNL     1      48.774 160.682  34.318  0.00  0.00    +0.144 HD
ATOM     26  H   UNL     1      47.981 160.835  35.819  0.00  0.00    +0.144 HD
ENDBRANCH  22  24
ENDBRANCH  20  22
ENDBRANCH  19  20
ENDBRANCH  11  18
ENDBRANCH   1  12
BRANCH   9  27
ATOM     27  N   UNL     1      52.410 155.020  28.187  0.00  0.00    -0.280 N 
ATOM     28  C   UNL     1      52.215 154.439  26.949  0.00  0.00    +0.252 C 
ATOM     29  O   UNL     1      51.577 155.135  26.087  0.00  0.00    -0.270 OA
ATOM     30  H   UNL     1      52.898 154.474  28.845  0.00  0.00    +0.155 HD
BRANCH  28  31
ATOM     31  C   UNL     1      52.635 153.133  26.476  0.00  0.00    +0.087 C 
ATOM     32  C   UNL     1      53.723 152.930  25.668  0.00  0.00    +0.138 C 
ATOM     33  C   UNL     1      54.071 151.632  25.245  0.00  0.00    +0.037 C 
ATOM     34  C   UNL     1      53.354 150.524  25.612  0.00  0.00    +0.003 C 
ATOM     35  C   UNL     1      52.260 150.722  26.424  0.00  0.00    +0.000 C 
ATOM     36  C   UNL     1      51.918 151.991  26.838  0.00  0.00    +0.008 C 
BRANCH  32  37
ATOM     37  O   UNL     1      54.525 153.977  25.232  0.00  0.00    -0.505 OA
ATOM     38  H   UNL     1      54.329 154.856  25.490  0.00  0.00    +0.292 HD
ENDBRANCH  32  37
ENDBRANCH  28  31
ENDBRANCH   9  27
BRANCH   3  39
ATOM     39  C   UNL     1      53.631 161.101  31.839  0.00  0.00    +0.177 C 
ATOM     40  O   UNL     1      53.632 161.247  33.125  0.00  0.00    -0.218 OA
BRANCH  39  41
ATOM     41  C   UNL     1      54.511 161.938  31.068  0.00  0.00    +0.041 C 
ATOM     42  C   UNL     1      55.851 162.071  31.299  0.00  0.00    +0.132 C 
ATOM     43  C   UNL     1      56.608 162.874  30.448  0.00  0.00    +0.036 C 
ATOM     44  C   UNL     1      56.012 163.519  29.396  0.00  0.00    +0.003 C 
ATOM     45  C   UNL     1      54.678 163.401  29.148  0.00  0.00    -0.000 C 
ATOM     46  C   UNL     1      53.929 162.615  29.979  0.00  0.00    +0.001 C 
BRANCH  42  47
ATOM     47  O   UNL     1      56.455 161.438  32.349  0.00  0.00    -0.506 OA
ATOM     48  H   UNL     1      55.950 160.897  32.924  0.00  0.00    +0.292 HD
ENDBRANCH  42  47
ENDBRANCH  39  41
ENDBRANCH   3  39
TORSDOF 11
