REMARK  Name = =
REMARK  7 active torsions:
REMARK  status: ('A' for Active; 'I' for Inactive)
REMARK    1  A    between atoms: C_1  and  C_18
REMARK    2  A    between atoms: N_2  and  C_7
REMARK    3  A    between atoms: C_9  and  C_13
REMARK    4  A    between atoms: C_10  and  O_16
REMARK    5  A    between atoms: O_21  and  O_22
REMARK    6  A    between atoms: O_23  and  O_24
REMARK    7  A    between atoms: O_24  and  N_25
REMARK                            x       y       z     vdW  Elec       q    Type
REMARK                         _______ _______ _______ _____ _____    ______ ____
ROOT
ATOM      1  C   UNL     1      50.156 157.882  30.026  0.00  0.00    +0.058 C 
ATOM      2  C   UNL     1      51.187 157.856  29.121  0.00  0.00    +0.023 C 
ATOM      3  C   UNL     1      51.937 156.704  28.843  0.00  0.00    +0.088 C 
ATOM      4  C   UNL     1      51.659 155.530  29.481  0.00  0.00    +0.138 C 
ATOM      5  C   UNL     1      50.601 155.546  30.412  0.00  0.00    +0.038 C 
ATOM      6  C   UNL     1      49.888 156.687  30.663  0.00  0.00    +0.018 C 
ENDROOT
BRANCH   1   8
ATOM      7  C   UNL     1      49.626 160.236  30.989  0.00  0.00    +0.159 C 
ATOM      8  N   UNL     1      49.366 159.000  30.356  0.00  0.00    -0.218 N 
ATOM      9  C   UNL     1      47.955 159.016  30.036  0.00  0.00    +0.409 C 
ATOM     10  O   UNL     1      47.255 158.039  29.632  0.00  0.00    -0.226 OA
ATOM     11  O   UNL     1      47.487 160.323  30.253  0.00  0.00    -0.432 OA
ATOM     12  C   UNL     1      48.626 161.147  30.269  0.00  0.00    +0.236 C 
BRANCH   7  14
ATOM     13 CL   UNL     1      47.532 160.203  32.852  0.00  0.00    -0.085 Cl
ATOM     14  C   UNL     1      49.257 160.281  32.425  0.00  0.00    +0.058 C 
ATOM     15  C   UNL     1      50.108 160.362  33.431  0.00  0.00    +0.009 C 
ENDBRANCH   7  14
ENDBRANCH   1   8
BRANCH   3  16
ATOM     16  C   UNL     1      53.005 156.790  27.881  0.00  0.00    +0.246 C 
ATOM     17  O   UNL     1      53.491 155.826  27.278  0.00  0.00    -0.270 OA
ATOM     18  N   UNL     1      53.557 158.074  27.591  0.00  0.00    -0.325 N 
ATOM     19  H   UNL     1      53.206 158.874  28.044  0.00  0.00    +0.145 HD
ATOM     20  H   UNL     1      54.289 158.159  26.938  0.00  0.00    +0.145 HD
ENDBRANCH   3  16
BRANCH   4  21
ATOM     21  O   UNL     1      52.328 154.330  29.285  0.00  0.00    -0.505 OA
ATOM     22  H   UNL     1      53.036 154.283  28.674  0.00  0.00    +0.292 HD
ENDBRANCH   4  21
TORSDOF 4
REMARK  Name = =
REMARK  7 active torsions:
REMARK  status: ('A' for Active; 'I' for Inactive)
REMARK    1  A    between atoms: C_1  and  C_18
REMARK    2  A    between atoms: N_2  and  C_7
REMARK    3  A    between atoms: C_9  and  C_13
REMARK    4  A    between atoms: C_10  and  O_16
REMARK    5  A    between atoms: O_21  and  O_22
REMARK    6  A    between atoms: O_23  and  O_24
REMARK    7  A    between atoms: O_24  and  N_25
REMARK                            x       y       z     vdW  Elec       q    Type
REMARK                         _______ _______ _______ _____ _____    ______ ____
ROOT
ATOM      1  P   UNL     1      51.273 160.775  30.667  0.00  0.00    +0.000 P 
ENDROOT
TORSDOF 0
REMARK  Name = =
REMARK  7 active torsions:
REMARK  status: ('A' for Active; 'I' for Inactive)
REMARK    1  A    between atoms: C_1  and  C_18
REMARK    2  A    between atoms: N_2  and  C_7
REMARK    3  A    between atoms: C_9  and  C_13
REMARK    4  A    between atoms: C_10  and  O_16
REMARK    5  A    between atoms: O_21  and  O_22
REMARK    6  A    between atoms: O_23  and  O_24
REMARK    7  A    between atoms: O_24  and  N_25
REMARK                            x       y       z     vdW  Elec       q    Type
REMARK                         _______ _______ _______ _____ _____    ______ ____
ROOT
ATOM      1  O   UNL     1      51.097 161.464  29.305  0.00  0.00    -0.253 OA
ATOM      2  H   UNL     1      50.134 161.353  29.351  0.00  0.00    +0.253 HD
ENDROOT
BRANCH   1   3
ATOM      3  O   UNL     1      51.540 162.364  30.386  0.00  0.00    -0.253 OA
ATOM      4  H   UNL     1      52.503 162.475  30.340  0.00  0.00    +0.253 HD
ENDBRANCH   1   3
TORSDOF 1
REMARK  Name = =
REMARK  7 active torsions:
REMARK  status: ('A' for Active; 'I' for Inactive)
REMARK    1  A    between atoms: C_1  and  C_18
REMARK    2  A    between atoms: N_2  and  C_7
REMARK    3  A    between atoms: C_9  and  C_13
REMARK    4  A    between atoms: C_10  and  O_16
REMARK    5  A    between atoms: O_21  and  O_22
REMARK    6  A    between atoms: O_23  and  O_24
REMARK    7  A    between atoms: O_24  and  N_25
REMARK                            x       y       z     vdW  Elec       q    Type
REMARK                         _______ _______ _______ _____ _____    ______ ____
ROOT
ATOM      1  N   UNL     1      53.254 161.281  32.043  0.00  0.00    -0.217 N 
ATOM      2  C   UNL     1      54.277 161.818  31.197  0.00  0.00    +0.181 C 
ATOM      3  N   UNL     1      54.890 161.092  30.323  0.00  0.00    -0.068 NA
ATOM      4  O   UNL     1      55.832 161.859  29.640  0.00  0.00    -0.376 OA
ATOM      5  C   UNL     1      55.438 163.231  29.746  0.00  0.00    +0.247 C 
ATOM      6  C   UNL     1      54.804 163.192  31.141  0.00  0.00    +0.119 C 
ATOM      7  H   UNL     1      53.102 161.694  32.924  0.00  0.00    +0.199 HD
ENDROOT
BRANCH   1   8
ATOM      8  O   UNL     1      52.488 160.226  31.677  0.00  0.00    -0.113 OA
BRANCH   8   9
ATOM      9  O   UNL     1      52.175 159.476  30.111  0.00  0.00    -0.226 OA
ATOM     10  H   UNL     1      51.567 158.729  30.226  0.00  0.00    +0.256 HD
ENDBRANCH   8   9
ENDBRANCH   1   8
TORSDOF 2
