REMARK  Name = =
REMARK  8 active torsions:
REMARK  status: ('A' for Active; 'I' for Inactive)
REMARK    1  A    between atoms: C_1  and  C_7
REMARK    2  A    between atoms: C_2  and  C_21
REMARK    3  A    between atoms: C_6  and  C_12
REMARK    4  A    between atoms: C_7  and  O_9
REMARK    5  A    between atoms: O_9  and  C_10
REMARK    6  A    between atoms: C_12  and  O_14
REMARK    7  A    between atoms: O_14  and  N_15
REMARK    8  A    between atoms: C_21  and  O_23
REMARK                            x       y       z     vdW  Elec       q    Type
REMARK                         _______ _______ _______ _____ _____    ______ ____
ROOT
ATOM      1  C   UNL     1      -2.114  -5.878  30.690  0.00  0.00    +0.087 C 
ATOM      2  C   UNL     1      -0.820  -6.353  31.132  0.00  0.00    +0.079 C 
ATOM      3  C   UNL     1       0.286  -5.658  30.968  0.00  0.00    +0.121 C 
ATOM      4  N   UNL     1       0.314  -4.386  30.342  0.00  0.00    -0.328 N 
ATOM      5  C   UNL     1      -0.936  -3.900  29.893  0.00  0.00    +0.065 C 
ATOM      6  C   UNL     1      -2.058  -4.556  30.036  0.00  0.00    +0.098 C 
ATOM      7  H   UNL     1       1.148  -3.875  30.228  0.00  0.00    +0.147 HD
ENDROOT
BRANCH   1   8
ATOM      8  C   UNL     1      -3.172  -5.858  31.754  0.00  0.00    +0.348 C 
ATOM      9  O   UNL     1      -3.112  -4.997  32.652  0.00  0.00    -0.244 OA
BRANCH   8  10
ATOM     10  O   UNL     1      -4.175  -6.767  31.735  0.00  0.00    -0.381 OA
BRANCH  10  11
ATOM     11  C   UNL     1      -4.459  -7.644  32.796  0.00  0.00    +0.425 C 
ATOM     12  O   UNL     1      -3.510  -7.863  33.597  0.00  0.00    -0.237 OA
ENDBRANCH  10  11
ENDBRANCH   8  10
ENDBRANCH   1   8
BRANCH   6  13
ATOM     13  C   UNL     1      -3.323  -3.946  29.519  0.00  0.00    +0.361 C 
ATOM     14  O   UNL     1      -3.266  -3.351  28.430  0.00  0.00    -0.243 OA
BRANCH  13  15
ATOM     15  O   UNL     1      -4.512  -4.026  30.201  0.00  0.00    -0.361 OA
BRANCH  15  16
ATOM     16  N   UNL     1      -5.241  -2.941  30.612  0.00  0.00    -0.117 NA
ATOM     17  C   UNL     1      -6.424  -3.330  31.359  0.00  0.00    +0.113 C 
ATOM     18  C   UNL     1      -7.104  -2.039  31.809  0.00  0.00    +0.021 C 
ATOM     19  C   UNL     1      -6.296  -1.458  32.928  0.00  0.00    +0.003 C 
ATOM     20  C   UNL     1      -4.889  -1.956  32.830  0.00  0.00    +0.021 C 
ATOM     21  C   UNL     1      -4.422  -2.061  31.388  0.00  0.00    +0.113 C 
ENDBRANCH  15  16
ENDBRANCH  13  15
ENDBRANCH   6  13
BRANCH   2  22
ATOM     22  C   UNL     1      -0.697  -7.683  31.773  0.00  0.00    +0.336 C 
ATOM     23  O   UNL     1      -1.239  -8.723  31.355  0.00  0.00    -0.245 OA
BRANCH  22  24
ATOM     24  O   UNL     1       0.070  -7.846  32.935  0.00  0.00    -0.477 OA
ATOM     25  H   UNL     1       0.510  -7.110  33.313  0.00  0.00    +0.295 HD
ENDBRANCH  22  24
ENDBRANCH   2  22
TORSDOF 8
