REMARK  Name = =
REMARK  0 active torsions:
REMARK  status: ('A' for Active; 'I' for Inactive)
REMARK                            x       y       z     vdW  Elec       q    Type
REMARK                         _______ _______ _______ _____ _____    ______ ____
ROOT
ATOM      1  N   UNL     1      -8.432 -13.770  19.671  0.00  0.00    -0.333 N 
ATOM      2  C   UNL     1      -9.211 -14.876  20.101  0.00  0.00    +0.041 C 
ATOM      3  C   UNL     1      -8.648 -16.011  19.561  0.00  0.00    -0.007 C 
ATOM      4  C   UNL     1      -9.238 -17.216  19.840  0.00  0.00    -0.003 C 
ATOM      5  C   UNL     1     -10.362 -17.327  20.634  0.00  0.00    -0.000 C 
ATOM      6  C   UNL     1     -10.938 -16.199  21.185  0.00  0.00    +0.001 C 
ATOM      7  C   UNL     1     -10.351 -14.982  20.909  0.00  0.00    +0.014 C 
ATOM      8  C   UNL     1      -7.444 -15.602  18.747  0.00  0.00    +0.049 C 
ATOM      9  C   UNL     1      -7.091 -14.257  19.405  0.00  0.00    +0.092 C 
ATOM     10  H   UNL     1      -8.744 -12.842  19.571  0.00  0.00    +0.147 HD
ENDROOT
TORSDOF 0
