REMARK  Name = =
REMARK  6 active torsions:
REMARK  status: ('A' for Active; 'I' for Inactive)
REMARK    1  A    between atoms: N_1  and  C_30
REMARK    2  A    between atoms: C_6  and  N_10
REMARK    3  A    between atoms: C_7  and  C_22
REMARK    4  A    between atoms: C_14  and  N_15
REMARK    5  A    between atoms: C_30  and  N_31
REMARK    6  A    between atoms: C_32  and  O_34
REMARK                            x       y       z     vdW  Elec       q    Type
REMARK                         _______ _______ _______ _____ _____    ______ ____
ROOT
ATOM      1  N   UNL     1     -12.307 -17.023  23.675  0.00  0.00    -0.291 N 
ATOM      2  C   UNL     1     -11.119 -17.058  22.863  0.00  0.00    +0.046 C 
ATOM      3  C   UNL     1     -10.107 -17.550  23.699  0.00  0.00    -0.007 C 
ATOM      4  C   UNL     1      -8.832 -17.568  23.228  0.00  0.00    -0.002 C 
ATOM      5  C   UNL     1      -8.561 -17.116  21.965  0.00  0.00    +0.014 C 
ATOM      6  C   UNL     1      -9.553 -16.617  21.091  0.00  0.00    +0.051 C 
ATOM      7  C   UNL     1     -10.832 -16.613  21.595  0.00  0.00    +0.030 C 
ATOM      8  C   UNL     1     -10.729 -18.016  24.995  0.00  0.00    +0.049 C 
ATOM      9  C   UNL     1     -12.211 -18.159  24.596  0.00  0.00    +0.097 C 
ENDROOT
BRANCH   7  10
ATOM     10  C   UNL     1     -11.981 -16.331  20.699  0.00  0.00    +0.044 C 
ATOM     11  C   UNL     1     -12.413 -15.102  20.622  0.00  0.00    +0.045 C 
ATOM     12  C   UNL     1     -13.534 -14.808  19.733  0.00  0.00    +0.196 C 
ATOM     13  O   UNL     1     -13.915 -13.595  19.707  0.00  0.00    -0.287 OA
ATOM     14  C   UNL     1     -14.181 -15.835  18.925  0.00  0.00    +0.045 C 
ATOM     15  C   UNL     1     -13.709 -17.079  19.021  0.00  0.00    +0.045 C 
ATOM     16  C   UNL     1     -12.601 -17.379  19.900  0.00  0.00    +0.196 C 
ATOM     17  O   UNL     1     -12.161 -18.541  19.979  0.00  0.00    -0.287 OA
ENDBRANCH   7  10
BRANCH   6  18
ATOM     18  N   UNL     1      -9.204 -16.216  19.801  0.00  0.00    -0.278 N 
ATOM     19  C   UNL     1      -9.191 -16.973  18.567  0.00  0.00    +0.112 C 
ATOM     20  C   UNL     1      -7.830 -16.456  18.025  0.00  0.00    +0.114 C 
ATOM     21  N   UNL     1      -7.920 -15.065  18.394  0.00  0.00    -0.180 NA
ATOM     22  C   UNL     1      -8.700 -14.922  19.405  0.00  0.00    +0.229 C 
BRANCH  22  23
ATOM     23  N   UNL     1      -8.995 -13.693  20.025  0.00  0.00    -0.290 N 
ATOM     24  C   UNL     1      -9.024 -12.440  19.377  0.00  0.00    +0.131 C 
ATOM     25  N   UNL     1      -9.309 -11.341  20.105  0.00  0.00    -0.229 NA
ATOM     26  C   UNL     1      -9.370 -10.100  19.602  0.00  0.00    +0.100 C 
ATOM     27  C   UNL     1      -9.134  -9.864  18.249  0.00  0.00    +0.021 C 
ATOM     28  C   UNL     1      -8.842 -10.951  17.479  0.00  0.00    +0.004 C 
ATOM     29  C   UNL     1      -8.789 -12.225  18.040  0.00  0.00    +0.034 C 
ATOM     30  H   UNL     1      -9.197 -13.709  20.988  0.00  0.00    +0.151 HD
ENDBRANCH  22  23
ENDBRANCH   6  18
BRANCH   1  31
ATOM     31  C   UNL     1     -13.315 -16.013  23.640  0.00  0.00    +0.190 C 
BRANCH  31  32
ATOM     32  N   UNL     1     -14.572 -16.504  24.177  0.00  0.00    -0.253 N 
ATOM     33  C   UNL     1     -15.738 -15.705  24.221  0.00  0.00    +0.400 C 
ATOM     34  O   UNL     1     -15.713 -14.518  23.784  0.00  0.00    -0.227 OA
ATOM     35  H   UNL     1     -14.614 -17.425  24.522  0.00  0.00    +0.154 HD
BRANCH  33  36
ATOM     36  O   UNL     1     -16.950 -16.158  24.733  0.00  0.00    -0.466 OA
ATOM     37  H   UNL     1     -17.020 -17.030  25.069  0.00  0.00    +0.297 HD
ENDBRANCH  33  36
ENDBRANCH  31  32
ENDBRANCH   1  31
TORSDOF 6
