MODEL 1
REMARK VINA RESULT:    -9.368      0.000      0.000
REMARK INTER + INTRA:         -14.905
REMARK INTER:                 -13.750
REMARK INTRA:                  -1.155
REMARK UNBOUND:                -1.155
REMARK  Name = =
REMARK  9 active torsions:
REMARK  status: ('A' for Active; 'I' for Inactive)
REMARK    1  A    between atoms: C_1  and  O_22
REMARK    2  A    between atoms: C_2  and  P_11
REMARK    3  A    between atoms: C_5  and  O_35
REMARK    4  A    between atoms: P_11  and  O_21
REMARK    5  A    between atoms: O_22  and  C_23
REMARK    6  A    between atoms: C_23  and  C_32
REMARK    7  A    between atoms: C_32  and  O_33
REMARK    8  A    between atoms: O_35  and  C_36
REMARK    9  A    between atoms: C_36  and  O_38
REMARK                            x       y       z     vdW  Elec       q    Type
REMARK                         _______ _______ _______ _____ _____    ______ ____
ROOT
ATOM      1  C   UNL     1      -1.050  -4.711  29.501  0.00  0.00    +0.153 C 
ATOM      2  C   UNL     1      -1.362  -5.985  29.781  0.00  0.00    +0.118 C 
ATOM      3  C   UNL     1      -2.351  -6.305  30.684  0.00  0.00    +0.014 C 
ATOM      4  C   UNL     1      -3.040  -5.250  31.312  0.00  0.00    +0.035 C 
ATOM      5  C   UNL     1      -2.759  -3.928  31.055  0.00  0.00    +0.155 C 
ATOM      6  C   UNL     1      -1.765  -3.686  30.149  0.00  0.00    +0.075 C 
ATOM      7  C   UNL     1      -4.039  -5.532  32.232  0.00  0.00    +0.003 C 
ATOM      8  C   UNL     1      -4.381  -6.831  32.554  0.00  0.00    +0.000 C 
ATOM      9  C   UNL     1      -3.703  -7.856  31.938  0.00  0.00    +0.000 C 
ATOM     10  C   UNL     1      -2.704  -7.577  31.017  0.00  0.00    +0.000 C 
ENDROOT
BRANCH   2  11
ATOM     11  P   UNL     1      -0.574  -7.283  28.960  0.00  0.00    +0.336 P 
ATOM     12  O   UNL     1       0.133  -7.578  30.099  0.00  0.00    -0.135 OA
ATOM     13  O   UNL     1       0.832  -7.114  28.170  0.00  0.00    -0.288 OA
ATOM     14  C   UNL     1       0.975  -8.008  27.154  0.00  0.00    +0.157 C 
ATOM     15  C   UNL     1      -0.095  -9.071  27.095  0.00  0.00    +0.173 C 
ATOM     16  O   UNL     1       0.491 -10.010  26.243  0.00  0.00    -0.351 OA
ATOM     17  C   UNL     1       1.766 -10.184  26.730  0.00  0.00    +0.145 C 
ATOM     18  C   UNL     1       2.227  -8.870  27.308  0.00  0.00    +0.065 C 
ATOM     19  C   UNL     1      -0.313  -9.671  28.488  0.00  0.00    +0.184 C 
ATOM     20  O   UNL     1      -1.218  -8.822  29.120  0.00  0.00    -0.285 OA
BRANCH  11  21
ATOM     21  O   UNL     1      -1.410  -7.127  27.688  0.00  0.00    -0.317 OA
ATOM     22  H   UNL     1      -1.464  -6.189  27.449  0.00  0.00    +0.221 HD
ENDBRANCH  11  21
ENDBRANCH   2  11
BRANCH   1  23
ATOM     23  O   UNL     1      -0.099  -4.240  28.650  0.00  0.00    -0.446 OA
BRANCH  23  24
ATOM     24  C   UNL     1       1.123  -3.648  28.911  0.00  0.00    +0.297 C 
ATOM     25  O   UNL     1       1.104  -2.320  29.378  0.00  0.00    -0.444 OA
ATOM     26  C   UNL     1       1.102  -1.197  28.600  0.00  0.00    +0.171 C 
ATOM     27  C   UNL     1       1.332  -1.299  27.315  0.00  0.00    +0.014 C 
ATOM     28  C   UNL     1       1.595  -2.584  26.673  0.00  0.00    +0.032 C 
ATOM     29  C   UNL     1       2.004  -3.685  27.630  0.00  0.00    +0.083 C 
ATOM     30  C   UNL     1       3.439  -3.316  27.956  0.00  0.00    +0.008 C 
ATOM     31  C   UNL     1       3.963  -2.601  26.728  0.00  0.00    +0.001 C 
ATOM     32  C   UNL     1       2.831  -2.377  25.785  0.00  0.00    +0.005 C 
BRANCH  24  33
ATOM     33  C   UNL     1       1.912  -4.476  29.889  0.00  0.00    +0.226 C 
BRANCH  33  34
ATOM     34  O   UNL     1       1.966  -4.076  31.186  0.00  0.00    -0.344 OA
ATOM     35  C   UNL     1       2.261  -5.031  32.124  0.00  0.00    +0.174 C 
ENDBRANCH  33  34
ENDBRANCH  24  33
ENDBRANCH  23  24
ENDBRANCH   1  23
BRANCH   5  36
ATOM     36  O   UNL     1      -3.445  -2.916  31.678  0.00  0.00    -0.394 OA
BRANCH  36  37
ATOM     37  C   UNL     1      -4.441  -2.156  31.113  0.00  0.00    +0.513 C 
ATOM     38  O   UNL     1      -4.153  -1.019  30.682  0.00  0.00    -0.203 OA
BRANCH  37  39
ATOM     39  O   UNL     1      -5.746  -2.610  31.011  0.00  0.00    -0.449 OA
ATOM     40  H   UNL     1      -6.229  -2.473  30.220  0.00  0.00    +0.299 HD
ENDBRANCH  37  39
ENDBRANCH  36  37
ENDBRANCH   5  36
TORSDOF 9
ENDMDL
