MODEL 1
REMARK VINA RESULT:   -10.560      0.000      0.000
REMARK INTER + INTRA:         -16.420
REMARK INTER:                 -14.882
REMARK INTRA:                  -1.538
REMARK UNBOUND:                -1.538
REMARK  Name = =
REMARK  7 active torsions:
REMARK  status: ('A' for Active; 'I' for Inactive)
REMARK    1  A    between atoms: C_8  and  N_30
REMARK    2  A    between atoms: C_9  and  C_12
REMARK    3  A    between atoms: C_15  and  C_23
REMARK    4  A    between atoms: C_16  and  N_19
REMARK    5  A    between atoms: N_19  and  N_20
REMARK    6  A    between atoms: C_23  and  C_24
REMARK    7  A    between atoms: N_33  and  C_34
REMARK                            x       y       z     vdW  Elec       q    Type
REMARK                         _______ _______ _______ _____ _____    ______ ____
ROOT
ATOM      1  N   UNL     1       3.383  -2.064  26.133  0.00  0.00    -0.248 N 
ATOM      2  C   UNL     1       2.937  -3.290  26.758  0.00  0.00    +0.252 C 
ATOM      3  O   UNL     1       3.667  -4.246  26.921  0.00  0.00    -0.270 OA
ATOM      4  C   UNL     1       1.538  -3.129  27.113  0.00  0.00    +0.056 C 
ATOM      5  C   UNL     1       1.181  -1.860  26.712  0.00  0.00    +0.058 C 
ATOM      6  C   UNL     1      -0.090  -1.386  26.912  0.00  0.00    +0.006 C 
ATOM      7  C   UNL     1      -1.011  -2.182  27.513  0.00  0.00    +0.015 C 
ATOM      8  C   UNL     1      -0.731  -3.494  27.958  0.00  0.00    +0.048 C 
ATOM      9  C   UNL     1       0.570  -3.966  27.746  0.00  0.00    +0.003 C 
ATOM     10  C   UNL     1       2.316  -1.157  26.091  0.00  0.00    +0.252 C 
ATOM     11  O   UNL     1       2.324   0.027  25.615  0.00  0.00    -0.270 OA
ATOM     12  H   UNL     1       4.291  -1.895  25.792  0.00  0.00    +0.158 HD
ENDROOT
BRANCH   9  13
ATOM     13  C   UNL     1       0.954  -5.235  28.306  0.00  0.00    +0.083 C 
ATOM     14  C   UNL     1       0.503  -5.352  29.790  0.00  0.00    +0.012 C 
ATOM     15  C   UNL     1       0.138  -6.840  30.082  0.00  0.00    +0.003 C 
ATOM     16  C   UNL     1      -1.188  -7.052  29.311  0.00  0.00    +0.027 C 
ATOM     17  C   UNL     1      -0.740  -7.132  27.865  0.00  0.00    +0.129 C 
ATOM     18  C   UNL     1       0.661  -6.551  27.788  0.00  0.00    +0.170 C 
ATOM     19  O   UNL     1       1.516  -7.244  27.288  0.00  0.00    -0.294 OA
BRANCH  17  20
ATOM     20  N   UNL     1      -0.683  -8.524  27.514  0.00  0.00    -0.224 NA
ATOM     21  H   UNL     1      -1.337  -9.027  28.115  0.00  0.00    +0.145 HD
BRANCH  20  22
ATOM     22  N   UNL     1      -1.000  -8.821  26.197  0.00  0.00    -0.242 N 
ATOM     23  C   UNL     1      -0.327  -9.836  25.463  0.00  0.00    +0.314 C 
ATOM     24  O   UNL     1       0.587 -10.495  26.018  0.00  0.00    -0.264 OA
ATOM     25  H   UNL     1      -1.716  -8.310  25.755  0.00  0.00    +0.169 HD
ENDBRANCH  20  22
ENDBRANCH  17  20
BRANCH  16  26
ATOM     26  C   UNL     1      -1.851  -8.208  29.913  0.00  0.00    +0.028 C 
BRANCH  26  27
ATOM     27  C   UNL     1      -2.523  -8.084  31.189  0.00  0.00    -0.022 C 
ATOM     28  C   UNL     1      -2.015  -8.514  32.375  0.00  0.00    -0.004 C 
ATOM     29  C   UNL     1      -2.706  -8.397  33.580  0.00  0.00    -0.000 C 
ATOM     30  C   UNL     1      -3.941  -7.836  33.607  0.00  0.00    -0.000 C 
ATOM     31  C   UNL     1      -4.497  -7.385  32.428  0.00  0.00    -0.000 C 
ATOM     32  C   UNL     1      -3.803  -7.507  31.247  0.00  0.00    -0.004 C 
ENDBRANCH  26  27
ENDBRANCH  16  26
ENDBRANCH   9  13
BRANCH   8  33
ATOM     33  N   UNL     1      -1.847  -4.142  28.494  0.00  0.00    -0.268 N 
ATOM     34  C   UNL     1      -2.512  -3.531  29.669  0.00  0.00    +0.308 C 
ATOM     35  O   UNL     1      -2.089  -2.489  30.182  0.00  0.00    -0.252 OA
ATOM     36  N   UNL     1      -3.650  -4.133  30.225  0.00  0.00    -0.268 N 
ATOM     37  H   UNL     1      -2.182  -4.982  28.103  0.00  0.00    +0.156 HD
ATOM     38  H   UNL     1      -3.958  -4.959  29.786  0.00  0.00    +0.156 HD
BRANCH  36  39
ATOM     39  C   UNL     1      -4.408  -3.705  31.332  0.00  0.00    +0.052 C 
ATOM     40  C   UNL     1      -5.522  -2.892  31.109  0.00  0.00    +0.015 C 
ATOM     41  C   UNL     1      -6.339  -2.419  32.106  0.00  0.00    +0.001 C 
ATOM     42  C   UNL     1      -6.085  -2.740  33.417  0.00  0.00    +0.000 C 
ATOM     43  C   UNL     1      -5.002  -3.537  33.685  0.00  0.00    +0.001 C 
ATOM     44  C   UNL     1      -4.176  -4.012  32.650  0.00  0.00    +0.015 C 
ENDBRANCH  36  39
ENDBRANCH   8  33
TORSDOF 7
ENDMDL
