REMARK  Name = =
REMARK  0 active torsions:
REMARK  status: ('A' for Active; 'I' for Inactive)
REMARK                            x       y       z     vdW  Elec       q    Type
REMARK                         _______ _______ _______ _____ _____    ______ ____
ROOT
ATOM      1  C   UNL     1      52.306 156.228  28.105  0.00  0.00    +0.045 C 
ATOM      2  C   UNL     1      52.930 155.913  26.982  0.00  0.00    +0.045 C 
ATOM      3  C   UNL     1      53.135 154.538  26.561  0.00  0.00    +0.196 C 
ATOM      4  O   UNL     1      53.737 154.288  25.482  0.00  0.00    -0.287 OA
ATOM      5  C   UNL     1      52.651 153.431  27.375  0.00  0.00    +0.045 C 
ATOM      6  C   UNL     1      52.023 153.744  28.501  0.00  0.00    +0.045 C 
ATOM      7  C   UNL     1      51.817 155.124  28.926  0.00  0.00    +0.196 C 
ATOM      8  O   UNL     1      51.213 155.351  30.007  0.00  0.00    -0.287 OA
ENDROOT
TORSDOF 0
