REMARK  Name = =
REMARK  1 active torsions:
REMARK  status: ('A' for Active; 'I' for Inactive)
REMARK    1  A    between atoms: C_14  and  C_15
REMARK                            x       y       z     vdW  Elec       q    Type
REMARK                         _______ _______ _______ _____ _____    ______ ____
ROOT
ATOM      1  C   UNL     1      49.779 157.787  28.480  0.00  0.00    +0.009 C 
ATOM      2  C   UNL     1      49.361 159.265  28.459  0.00  0.00    +0.026 C 
ATOM      3  C   UNL     1      49.595 159.760  29.837  0.00  0.00    -0.026 C 
ATOM      4  C   UNL     1      50.666 159.281  30.556  0.00  0.00    -0.026 C 
ATOM      5  C   UNL     1      50.904 159.739  31.866  0.00  0.00    -0.005 C 
ATOM      6  C   UNL     1      50.093 160.658  32.451  0.00  0.00    -0.000 C 
ATOM      7  C   UNL     1      49.010 161.142  31.722  0.00  0.00    -0.000 C 
ATOM      8  C   UNL     1      48.768 160.696  30.431  0.00  0.00    -0.005 C 
ATOM      9  C   UNL     1      48.152 162.078  32.266  0.00  0.00    -0.000 C 
ATOM     10  C   UNL     1      48.339 162.560  33.544  0.00  0.00    -0.000 C 
ATOM     11  C   UNL     1      49.413 162.076  34.259  0.00  0.00    -0.000 C 
ATOM     12  C   UNL     1      50.277 161.143  33.731  0.00  0.00    -0.000 C 
ATOM     13  C   UNL     1      51.626 158.276  30.034  0.00  0.00    +0.030 C 
ATOM     14  C   UNL     1      51.301 157.844  28.650  0.00  0.00    +0.030 C 
ENDROOT
BRANCH  14  15
ATOM     15  C   UNL     1      51.908 156.520  28.309  0.00  0.00    +0.020 C 
ATOM     16  C   UNL     1      52.660 156.357  27.231  0.00  0.00    +0.041 C 
ATOM     17  C   UNL     1      53.248 155.048  26.912  0.00  0.00    +0.196 C 
ATOM     18  O   UNL     1      53.961 154.903  25.887  0.00  0.00    -0.287 OA
ATOM     19  C   UNL     1      53.032 153.882  27.760  0.00  0.00    +0.045 C 
ATOM     20  C   UNL     1      52.280 154.049  28.836  0.00  0.00    +0.045 C 
ATOM     21  C   UNL     1      51.692 155.355  29.156  0.00  0.00    +0.192 C 
ATOM     22  O   UNL     1      50.977 155.473  30.199  0.00  0.00    -0.287 OA
ENDBRANCH  14  15
TORSDOF 1
