REMARK  Name = =
REMARK  7 active torsions:
REMARK  status: ('A' for Active; 'I' for Inactive)
REMARK    1  A    between atoms: O_3  and  O_4
REMARK    2  A    between atoms: C_5  and  O_7
REMARK    3  A    between atoms: O_7  and  C_8
REMARK    4  A    between atoms: C_10  and  O_13
REMARK    5  A    between atoms: O_13  and  C_14
REMARK    6  A    between atoms: C_18  and  O_22
REMARK    7  A    between atoms: C_24  and  C_35
REMARK                            x       y       z     vdW  Elec       q    Type
REMARK                         _______ _______ _______ _____ _____    ______ ____
ROOT
ATOM      1  P   UNL     1     -17.066 -42.371  29.261  0.00  0.00    +0.000 P 
ENDROOT
TORSDOF 0
REMARK  Name = =
REMARK  7 active torsions:
REMARK  status: ('A' for Active; 'I' for Inactive)
REMARK    1  A    between atoms: O_3  and  O_4
REMARK    2  A    between atoms: C_5  and  O_7
REMARK    3  A    between atoms: O_7  and  C_8
REMARK    4  A    between atoms: C_10  and  O_13
REMARK    5  A    between atoms: O_13  and  C_14
REMARK    6  A    between atoms: C_18  and  O_22
REMARK    7  A    between atoms: C_24  and  C_35
REMARK                            x       y       z     vdW  Elec       q    Type
REMARK                         _______ _______ _______ _____ _____    ______ ____
ROOT
ATOM      1  O   HOH     1     -17.786 -41.446  28.365  0.00  0.00    -0.253 OA
ATOM      2  H   HOH     0     -16.816 -41.446  28.365  0.00  0.00    +0.253 HD
ENDROOT
TORSDOF 0
REMARK  Name = =
REMARK  7 active torsions:
REMARK  status: ('A' for Active; 'I' for Inactive)
REMARK    1  A    between atoms: O_3  and  O_4
REMARK    2  A    between atoms: C_5  and  O_7
REMARK    3  A    between atoms: O_7  and  C_8
REMARK    4  A    between atoms: C_10  and  O_13
REMARK    5  A    between atoms: O_13  and  C_14
REMARK    6  A    between atoms: C_18  and  O_22
REMARK    7  A    between atoms: C_24  and  C_35
REMARK                            x       y       z     vdW  Elec       q    Type
REMARK                         _______ _______ _______ _____ _____    ______ ____
ROOT
ATOM      1  O   UNL     1     -18.663 -42.758  29.542  0.00  0.00    -0.253 OA
ATOM      2  H   UNL     1     -18.310 -41.893  29.281  0.00  0.00    +0.253 HD
ENDROOT
BRANCH   1   3
ATOM      3  O   UNL     1     -17.460 -43.998  29.234  0.00  0.00    -0.253 OA
ATOM      4  H   UNL     1     -17.813 -44.863  29.495  0.00  0.00    +0.253 HD
ENDBRANCH   1   3
TORSDOF 1
REMARK  Name = =
REMARK  7 active torsions:
REMARK  status: ('A' for Active; 'I' for Inactive)
REMARK    1  A    between atoms: O_3  and  O_4
REMARK    2  A    between atoms: C_5  and  O_7
REMARK    3  A    between atoms: O_7  and  C_8
REMARK    4  A    between atoms: C_10  and  O_13
REMARK    5  A    between atoms: O_13  and  C_14
REMARK    6  A    between atoms: C_18  and  O_22
REMARK    7  A    between atoms: C_24  and  C_35
REMARK                            x       y       z     vdW  Elec       q    Type
REMARK                         _______ _______ _______ _____ _____    ______ ____
ROOT
ATOM      1  C   UNL     1      -9.651 -43.117  32.711  0.00  0.00    +0.190 C 
ATOM      2  C   UNL     1     -10.296 -43.791  31.791  0.00  0.00    +0.086 C 
ATOM      3  C   UNL     1      -9.536 -44.802  31.041  0.00  0.00    +0.232 C 
ATOM      4  O   UNL     1     -10.084 -45.477  30.158  0.00  0.00    -0.283 OA
ATOM      5  C   UNL     1      -8.115 -45.015  31.343  0.00  0.00    +0.176 C 
ATOM      6  C   UNL     1      -7.521 -44.312  32.273  0.00  0.00    +0.085 C 
ATOM      7  C   UNL     1      -8.253 -43.300  33.035  0.00  0.00    +0.233 C 
ATOM      8  O   UNL     1      -7.681 -42.622  33.930  0.00  0.00    -0.283 OA
ENDROOT
BRANCH   5   9
ATOM      9  O   UNL     1      -7.384 -45.961  30.651  0.00  0.00    -0.503 OA
ATOM     10  H   UNL     1      -7.794 -46.473  29.982  0.00  0.00    +0.292 HD
ENDBRANCH   5   9
BRANCH   1  11
ATOM     11  O   UNL     1     -10.357 -42.154  33.431  0.00  0.00    -0.427 OA
BRANCH  11  14
ATOM     12  C   UNL     1     -14.238 -42.681  32.198  0.00  0.00    +0.288 A 
ATOM     13  S   UNL     1     -12.423 -42.940  31.594  0.00  0.00    +0.031 S 
ATOM     14  C   UNL     1     -11.848 -42.239  33.231  0.00  0.00    +0.285 A 
ATOM     15  N   UNL     1     -12.823 -42.015  33.755  0.00  0.00    -0.100 NA
ATOM     16  N   UNL     1     -14.021 -42.239  33.231  0.00  0.00    -0.100 NA
BRANCH  12  17
ATOM     17  O   UNL     1     -15.254 -43.084  31.253  0.00  0.00    -0.391 OA
BRANCH  17  18
ATOM     18  C   UNL     1     -16.151 -42.172  30.812  0.00  0.00    +0.425 C 
ATOM     19  O   UNL     1     -16.449 -41.119  31.390  0.00  0.00    -0.237 OA
ENDBRANCH  17  18
ENDBRANCH  12  17
ENDBRANCH  11  14
ENDBRANCH   1  11
TORSDOF 5
REMARK  Name = =
REMARK  7 active torsions:
REMARK  status: ('A' for Active; 'I' for Inactive)
REMARK    1  A    between atoms: O_3  and  O_4
REMARK    2  A    between atoms: C_5  and  O_7
REMARK    3  A    between atoms: O_7  and  C_8
REMARK    4  A    between atoms: C_10  and  O_13
REMARK    5  A    between atoms: O_13  and  C_14
REMARK    6  A    between atoms: C_18  and  O_22
REMARK    7  A    between atoms: C_24  and  C_35
REMARK                            x       y       z     vdW  Elec       q    Type
REMARK                         _______ _______ _______ _____ _____    ______ ____
ROOT
ATOM      1  O   UNL     1     -16.459 -42.659  27.766  0.00  0.00    -0.286 OA
ATOM      2  C   UNL     1     -15.023 -42.336  25.873  0.00  0.00    +0.057 C 
ATOM      3  C   UNL     1     -15.223 -42.539  27.197  0.00  0.00    +0.200 C 
ATOM      4  C   UNL     1     -14.147 -42.651  28.097  0.00  0.00    +0.080 C 
ATOM      5  C   UNL     1     -12.854 -42.561  27.646  0.00  0.00    +0.152 C 
ATOM      6  C   UNL     1     -12.634 -42.360  26.310  0.00  0.00    +0.035 C 
ATOM      7  C   UNL     1     -13.709 -42.246  25.418  0.00  0.00    +0.008 C 
ATOM      8  C   UNL     1     -11.330 -42.274  25.888  0.00  0.00    +0.010 C 
ATOM      9  C   UNL     1     -10.305 -42.388  26.795  0.00  0.00    +0.082 C 
ATOM     10  C   UNL     1     -10.586 -42.594  28.148  0.00  0.00    +0.346 C 
ATOM     11  O   UNL     1      -9.638 -42.698  28.972  0.00  0.00    -0.244 OA
ATOM     12  O   UNL     1     -11.835 -42.667  28.496  0.00  0.00    -0.421 OA
ENDROOT
BRANCH   2  13
ATOM     13  C   UNL     1     -16.154 -42.184  24.954  0.00  0.00    +0.084 C 
ATOM     14  N   UNL     1     -17.408 -42.451  25.317  0.00  0.00    -0.245 NA
ATOM     15  C   UNL     1     -18.459 -42.338  24.527  0.00  0.00    +0.084 C 
ATOM     16  C   UNL     1     -18.295 -41.913  23.211  0.00  0.00    +0.037 C 
ATOM     17  C   UNL     1     -17.016 -41.625  22.793  0.00  0.00    +0.005 C 
ATOM     18  C   UNL     1     -15.960 -41.763  23.661  0.00  0.00    +0.019 C 
ATOM     19  C   UNL     1     -19.397 -41.798  22.402  0.00  0.00    +0.100 C 
ATOM     20  N   UNL     1     -20.641 -42.077  22.813  0.00  0.00    -0.242 NA
ATOM     21  C   UNL     1     -20.825 -42.487  24.071  0.00  0.00    +0.100 C 
ATOM     22  C   UNL     1     -19.760 -42.623  24.935  0.00  0.00    +0.040 C 
ENDBRANCH   2  13
TORSDOF 1
