MODEL 1
REMARK VINA RESULT:    -6.729      0.000      0.000
REMARK INTER + INTRA:          -8.605
REMARK INTER:                  -7.713
REMARK INTRA:                  -0.893
REMARK UNBOUND:                -0.893
REMARK  Name = =
REMARK  3 active torsions:
REMARK  status: ('A' for Active; 'I' for Inactive)
REMARK    1  A    between atoms: S_1  and  C_13
REMARK    2  A    between atoms: C_9  and  C_19
REMARK    3  A    between atoms: C_22  and  O_24
REMARK                            x       y       z     vdW  Elec       q    Type
REMARK                         _______ _______ _______ _____ _____    ______ ____
ROOT
ATOM      1  S   UNL     1      60.447 145.472  40.282  0.00  0.00    -0.098 S 
ATOM      2  C   UNL     1      59.767 143.951  39.409  0.00  0.00    +0.180 C 
ATOM      3  N   UNL     1      58.559 144.235  39.258  0.00  0.00    -0.126 NA
ATOM      4  N   UNL     1      58.066 145.388  39.687  0.00  0.00    -0.139 NA
ATOM      5  C   UNL     1      58.705 146.266  40.252  0.00  0.00    +0.142 C 
ATOM      6  N   UNL     1      60.521 142.838  39.063  0.00  0.00    -0.186 N 
ATOM      7  C   UNL     1      61.874 142.500  39.284  0.00  0.00    +0.245 C 
ATOM      8  O   UNL     1      62.583 142.967  40.209  0.00  0.00    -0.274 OA
ATOM      9  C   UNL     1      62.302 141.519  38.262  0.00  0.00    +0.163 C 
ATOM     10  C   UNL     1      61.074 141.175  37.519  0.00  0.00    +0.104 C 
ATOM     11  C   UNL     1      59.963 141.730  38.318  0.00  0.00    +0.238 C 
ATOM     12  O   UNL     1      58.745 141.339  38.368  0.00  0.00    -0.274 OA
ATOM     13  H   UNL     1      61.151 145.307  41.433  0.00  0.00    +0.100 HD
ENDROOT
BRANCH   1  14
ATOM     14  C   UNL     1      61.600 146.426  39.337  0.00  0.00    +0.232 C 
ATOM     15  O   UNL     1      62.217 145.682  38.323  0.00  0.00    -0.435 OA
ATOM     16  C   UNL     1      63.598 145.749  38.429  0.00  0.00    +0.342 C 
ATOM     17  O   UNL     1      64.412 145.261  37.607  0.00  0.00    -0.245 OA
ATOM     18  C   UNL     1      63.994 146.494  39.666  0.00  0.00    +0.082 C 
ATOM     19  C   UNL     1      62.670 146.984  40.210  0.00  0.00    +0.034 C 
ENDBRANCH   1  14
BRANCH   9  20
ATOM     20  C   UNL     1      63.413 142.000  37.435  0.00  0.00    +0.239 C 
ATOM     21  O   UNL     1      64.576 141.992  37.884  0.00  0.00    -0.274 OA
ATOM     22  N   UNL     1      63.179 142.475  36.129  0.00  0.00    -0.221 N 
ATOM     23  C   UNL     1      64.221 142.953  35.284  0.00  0.00    +0.404 C 
ATOM     24  O   UNL     1      65.418 142.965  35.693  0.00  0.00    -0.226 OA
ATOM     25  H   UNL     1      62.256 142.475  35.786  0.00  0.00    +0.161 HD
BRANCH  23  26
ATOM     26  O   UNL     1      64.007 143.422  33.999  0.00  0.00    -0.466 OA
ATOM     27  H   UNL     1      63.344 144.066  33.839  0.00  0.00    +0.297 HD
ENDBRANCH  23  26
ENDBRANCH   9  20
TORSDOF 3
ENDMDL
