MODEL 1
REMARK VINA RESULT:    -7.045      0.000      0.000
REMARK INTER + INTRA:         -14.454
REMARK INTER:                 -12.398
REMARK INTRA:                  -2.055
REMARK UNBOUND:                -2.055
REMARK  Name = =
REMARK  15 active torsions:
REMARK  status: ('A' for Active; 'I' for Inactive)
REMARK    1  A    between atoms: S_1  and  C_2
REMARK    2  A    between atoms: S_1  and  N_3
REMARK    3  A    between atoms: C_2  and  N_21
REMARK    4  A    between atoms: C_2  and  C_22
REMARK    5  A    between atoms: N_3  and  C_15
REMARK    6  A    between atoms: C_4  and  C_19
REMARK    7  A    between atoms: C_22  and  N_23
REMARK    8  A    between atoms: N_23  and  C_24
REMARK    9  A    between atoms: C_24  and  N_29
REMARK   10  A    between atoms: C_25  and  C_26
REMARK   11  A    between atoms: C_26  and  O_28
REMARK   12  A    between atoms: N_29  and  N_30
REMARK   13  A    between atoms: N_29  and  O_38
REMARK   14  A    between atoms: C_34  and  C_35
REMARK   15  A    between atoms: C_35  and  O_37
REMARK                            x       y       z     vdW  Elec       q    Type
REMARK                         _______ _______ _______ _____ _____    ______ ____
ROOT
ATOM      1  C   UNL     1      59.438 162.536  35.973  0.00  0.00    +0.124 C 
ENDROOT
BRANCH   1   2
ATOM      2  N   UNL     1      58.965 162.135  34.698  0.00  0.00    -0.312 NA
ATOM      3  H   UNL     1      59.654 161.527  34.256  0.00  0.00    +0.120 HD
ATOM      4  H   UNL     1      58.816 162.959  34.117  0.00  0.00    +0.120 HD
ENDBRANCH   1   2
BRANCH   1   5
ATOM      5  S   UNL     1      59.370 161.569  37.286  0.00  0.00    -0.106 S 
ATOM      6  H   UNL     1      60.040 160.426  36.981  0.00  0.00    +0.114 HD
BRANCH   5   7
ATOM      7  N   UNL     1      60.042 162.183  38.807  0.00  0.00    -0.219 N 
ATOM      8  C   UNL     1      61.369 161.995  39.115  0.00  0.00    +0.261 C 
ATOM      9  O   UNL     1      61.816 162.398  40.283  0.00  0.00    -0.269 OA
BRANCH   7  19
ATOM     10  N   UNL     1      56.829 161.923  42.171  0.00  0.00    -0.263 NA
ATOM     11  C   UNL     1      57.429 162.752  41.394  0.00  0.00    +0.078 C 
ATOM     12  C   UNL     1      58.350 162.128  40.562  0.00  0.00    +0.030 C 
ATOM     13  C   UNL     1      58.326 160.825  40.834  0.00  0.00    +0.007 C 
ATOM     14  C   UNL     1      57.322 160.626  41.908  0.00  0.00    +0.148 C 
ATOM     15  C   UNL     1      57.128 159.415  42.338  0.00  0.00    +0.002 C 
ATOM     16  C   UNL     1      57.830 158.215  41.840  0.00  0.00    -0.002 C 
ATOM     17  C   UNL     1      58.811 158.500  40.773  0.00  0.00    -0.001 C 
ATOM     18  C   UNL     1      59.055 159.694  40.294  0.00  0.00    -0.002 C 
ATOM     19  C   UNL     1      59.094 162.830  39.659  0.00  0.00    +0.065 C 
ATOM     20  C   UNL     1      58.923 164.191  39.577  0.00  0.00    +0.016 C 
ATOM     21  C   UNL     1      58.027 164.869  40.373  0.00  0.00    +0.003 C 
ATOM     22  C   UNL     1      57.297 164.132  41.268  0.00  0.00    +0.019 C 
ENDBRANCH   7  19
BRANCH   8  23
ATOM     23  C   UNL     1      62.367 161.394  38.297  0.00  0.00    +0.059 C 
ATOM     24  C   UNL     1      63.633 161.236  38.531  0.00  0.00    +0.005 C 
ENDBRANCH   8  23
ENDBRANCH   5   7
ENDBRANCH   1   5
BRANCH   1  25
ATOM     25  C   UNL     1      60.017 163.889  36.108  0.00  0.00    +0.116 C 
BRANCH  25  26
ATOM     26  N   UNL     1      59.727 164.734  34.968  0.00  0.00    -0.315 N 
ATOM     27  H   UNL     1      59.004 164.464  34.357  0.00  0.00    +0.148 HD
BRANCH  26  28
ATOM     28  C   UNL     1      60.442 165.946  34.685  0.00  0.00    +0.158 C 
ATOM     29  C   UNL     1      59.760 167.057  34.467  0.00  0.00    +0.118 C 
BRANCH  29  30
ATOM     30  C   UNL     1      60.431 168.320  34.175  0.00  0.00    +0.341 C 
ATOM     31  O   UNL     1      60.844 169.058  35.084  0.00  0.00    -0.245 OA
BRANCH  30  32
ATOM     32  O   UNL     1      60.608 168.699  32.839  0.00  0.00    -0.477 OA
ATOM     33  H   UNL     1      59.989 168.427  32.190  0.00  0.00    +0.295 HD
ENDBRANCH  30  32
ENDBRANCH  29  30
BRANCH  28  34
ATOM     34  N   UNL     1      61.841 165.988  34.588  0.00  0.00    -0.146 N 
BRANCH  34  35
ATOM     35  N   UNL     1      62.807 166.366  35.482  0.00  0.00    -0.158 N 
ATOM     36  C   UNL     1      62.820 165.957  36.797  0.00  0.00    +0.189 C 
ATOM     37  N   UNL     1      63.863 166.476  37.434  0.00  0.00    -0.223 NA
ATOM     38  C   UNL     1      64.557 167.223  36.590  0.00  0.00    +0.124 C 
ATOM     39  C   UNL     1      63.887 167.154  35.354  0.00  0.00    +0.170 C 
BRANCH  39  40
ATOM     40  C   UNL     1      64.380 167.867  34.206  0.00  0.00    +0.355 C 
ATOM     41  O   UNL     1      65.552 167.879  33.795  0.00  0.00    -0.244 OA
BRANCH  40  42
ATOM     42  O   UNL     1      63.492 168.639  33.442  0.00  0.00    -0.476 OA
ATOM     43  H   UNL     1      62.646 168.857  33.783  0.00  0.00    +0.295 HD
ENDBRANCH  40  42
ENDBRANCH  39  40
ENDBRANCH  34  35
BRANCH  34  44
ATOM     44  O   UNL     1      62.294 165.557  33.336  0.00  0.00    -0.267 OA
ATOM     45  H   UNL     1      61.624 165.756  32.663  0.00  0.00    +0.246 HD
ENDBRANCH  34  44
ENDBRANCH  28  34
ENDBRANCH  26  28
ENDBRANCH  25  26
ENDBRANCH   1  25
TORSDOF 15
ENDMDL
