REMARK  Name = =
REMARK  3 active torsions:
REMARK  status: ('A' for Active; 'I' for Inactive)
REMARK    1  A    between atoms: S_1  and  C_13
REMARK    2  A    between atoms: C_9  and  C_19
REMARK    3  A    between atoms: C_22  and  O_24
REMARK                            x       y       z     vdW  Elec       q    Type
REMARK                         _______ _______ _______ _____ _____    ______ ____
ROOT
ATOM      1  S   UNL     1      39.183 161.173  25.608  0.00  0.00    -0.098 S 
ATOM      2  C   UNL     1      38.636 159.778  24.472  0.00  0.00    +0.180 C 
ATOM      3  N   UNL     1      37.390 159.867  24.504  0.00  0.00    -0.126 NA
ATOM      4  N   UNL     1      36.786 160.794  25.234  0.00  0.00    -0.139 NA
ATOM      5  C   UNL     1      37.352 161.630  25.926  0.00  0.00    +0.142 C 
ATOM      6  N   UNL     1      39.500 158.918  23.807  0.00  0.00    -0.186 N 
ATOM      7  C   UNL     1      40.906 158.788  23.817  0.00  0.00    +0.245 C 
ATOM      8  O   UNL     1      41.650 159.165  24.755  0.00  0.00    -0.274 OA
ATOM      9  C   UNL     1      41.342 158.142  22.559  0.00  0.00    +0.163 C 
ATOM     10  C   UNL     1      40.095 157.751  21.873  0.00  0.00    +0.104 C 
ATOM     11  C   UNL     1      39.026 157.914  22.879  0.00  0.00    +0.238 C 
ATOM     12  O   UNL     1      37.899 157.310  22.949  0.00  0.00    -0.274 OA
ATOM     13  H   UNL     1      40.049 160.894  26.619  0.00  0.00    +0.100 HD
ENDROOT
BRANCH   1  14
ATOM     14  C   UNL     1      40.043 162.498  24.809  0.00  0.00    +0.232 C 
ATOM     15  O   UNL     1      39.556 162.762  23.523  0.00  0.00    -0.435 OA
ATOM     16  C   UNL     1      40.577 162.710  22.585  0.00  0.00    +0.342 C 
ATOM     17  O   UNL     1      40.458 162.996  21.369  0.00  0.00    -0.245 OA
ATOM     18  C   UNL     1      41.855 162.265  23.226  0.00  0.00    +0.082 C 
ATOM     19  C   UNL     1      41.497 162.195  24.694  0.00  0.00    +0.034 C 
ENDBRANCH   1  14
BRANCH   9  20
ATOM     20  C   UNL     1      42.248 158.979  21.768  0.00  0.00    +0.239 C 
ATOM     21  O   UNL     1      42.271 160.214  21.941  0.00  0.00    -0.274 OA
ATOM     22  N   UNL     1      43.100 158.400  20.806  0.00  0.00    -0.221 N 
ATOM     23  C   UNL     1      43.999 159.167  20.010  0.00  0.00    +0.404 C 
ATOM     24  O   UNL     1      44.060 160.423  20.149  0.00  0.00    -0.226 OA
ATOM     25  H   UNL     1      43.073 157.424  20.679  0.00  0.00    +0.161 HD
BRANCH  23  26
ATOM     26  O   UNL     1      44.842 158.612  19.062  0.00  0.00    -0.466 OA
ATOM     27  H   UNL     1      44.839 157.686  18.917  0.00  0.00    +0.297 HD
ENDBRANCH  23  26
ENDBRANCH   9  20
TORSDOF 3
