REMARK  Name = =
REMARK  0 active torsions:
REMARK  status: ('A' for Active; 'I' for Inactive)
REMARK                            x       y       z     vdW  Elec       q    Type
REMARK                         _______ _______ _______ _____ _____    ______ ____
ROOT
ATOM      1  C   UNL     1     -13.128 -42.995  27.198  0.00  0.00    +0.021 C 
ATOM      2  C   UNL     1     -11.972 -42.475  27.735  0.00  0.00    +0.003 C 
ATOM      3  C   UNL     1     -11.075 -43.305  28.396  0.00  0.00    +0.021 C 
ATOM      4  C   UNL     1     -11.398 -44.642  28.482  0.00  0.00    +0.099 C 
ATOM      5  N   UNL     1     -12.538 -45.123  27.945  0.00  0.00    -0.242 NA
ATOM      6  C   UNL     1     -13.426 -44.342  27.299  0.00  0.00    +0.099 C 
ENDROOT
TORSDOF 0
