MODEL 1
REMARK VINA RESULT:    -9.977      0.000      0.000
REMARK INTER + INTRA:         -17.617
REMARK INTER:                 -16.102
REMARK INTRA:                  -1.515
REMARK UNBOUND:                -1.515
REMARK  Name = =
REMARK  12 active torsions:
REMARK  status: ('A' for Active; 'I' for Inactive)
REMARK    1  A    between atoms: C_4  and  O_11
REMARK    2  A    between atoms: C_6  and  O_28
REMARK    3  A    between atoms: C_7  and  C_12
REMARK    4  A    between atoms: C_12  and  C_14
REMARK    5  A    between atoms: N_16  and  N_17
REMARK    6  A    between atoms: N_17  and  O_23
REMARK    7  A    between atoms: C_18  and  C_20
REMARK    8  A    between atoms: O_23  and  S_24
REMARK    9  A    between atoms: O_28  and  P_29
REMARK   10  A    between atoms: P_29  and  C_31
REMARK   11  A    between atoms: P_29  and  O_34
REMARK   12  A    between atoms: C_31  and  O_33
REMARK                            x       y       z     vdW  Elec       q    Type
REMARK                         _______ _______ _______ _____ _____    ______ ____
ROOT
ATOM      1  C   UNL     1     -17.026 -41.907  25.537  0.00  0.00    +0.169 C 
ATOM      2  C   UNL     1     -15.903 -42.185  26.266  0.00  0.00    +0.025 C 
ATOM      3  C   UNL     1     -16.024 -42.275  27.649  0.00  0.00    +0.036 C 
ATOM      4  C   UNL     1     -17.209 -42.097  28.314  0.00  0.00    +0.137 C 
ATOM      5  C   UNL     1     -18.350 -41.816  27.579  0.00  0.00    +0.077 C 
ATOM      6  C   UNL     1     -18.252 -41.724  26.211  0.00  0.00    +0.184 C 
ATOM      7  C   UNL     1     -14.587 -42.369  25.605  0.00  0.00    +0.096 C 
ATOM      8  C   UNL     1     -14.863 -42.898  24.197  0.00  0.00    +0.060 C 
ATOM      9  C   UNL     1     -15.773 -41.971  23.430  0.00  0.00    +0.206 C 
ATOM     10  O   UNL     1     -17.007 -41.796  24.144  0.00  0.00    -0.473 OA
ENDROOT
BRANCH   4  11
ATOM     11  O   UNL     1     -17.299 -42.193  29.702  0.00  0.00    -0.505 OA
ATOM     12  H   UNL     1     -16.760 -42.804  30.165  0.00  0.00    +0.292 HD
ENDBRANCH   4  11
BRANCH   7  13
ATOM     13  C   UNL     1     -13.800 -43.449  26.316  0.00  0.00    +0.231 C 
ATOM     14  O   UNL     1     -13.850 -44.604  25.881  0.00  0.00    -0.286 OA
BRANCH  13  15
ATOM     15  C   UNL     1     -13.015 -43.042  27.508  0.00  0.00    +0.299 C 
ATOM     16  O   UNL     1     -12.581 -41.866  27.608  0.00  0.00    -0.265 OA
ATOM     17  N   UNL     1     -12.748 -43.949  28.550  0.00  0.00    -0.199 N 
ATOM     18  H   UNL     1     -13.065 -44.877  28.465  0.00  0.00    +0.176 HD
BRANCH  17  19
ATOM     19  N   UNL     1     -12.047 -43.577  29.703  0.00  0.00    -0.056 N 
ATOM     20  C   UNL     1     -12.626 -43.914  30.960  0.00  0.00    +0.343 C 
ATOM     21  O   UNL     1     -12.010 -43.605  31.999  0.00  0.00    -0.261 OA
BRANCH  20  22
ATOM     22  C   UNL     1     -13.886 -44.588  31.043  0.00  0.00    +0.300 C 
ATOM     23  O   UNL     1     -14.907 -44.033  30.547  0.00  0.00    -0.265 OA
ATOM     24  N   UNL     1     -14.013 -45.858  31.665  0.00  0.00    -0.321 N 
ATOM     25  H   UNL     1     -13.223 -46.297  32.054  0.00  0.00    +0.145 HD
ATOM     26  H   UNL     1     -14.892 -46.300  31.707  0.00  0.00    +0.145 HD
ENDBRANCH  20  22
BRANCH  19  27
ATOM     27  O   UNL     1     -10.892 -42.951  29.624  0.00  0.00    -0.094 OA
BRANCH  27  28
ATOM     28  S   UNL     1      -9.604 -43.891  29.149  0.00  0.00    +0.163 S 
ATOM     29  O   UNL     1     -10.183 -45.177  28.579  0.00  0.00    -0.039 OA
ATOM     30  O   UNL     1      -8.779 -44.268  30.365  0.00  0.00    -0.039 OA
ATOM     31  F   UNL     1      -8.624 -43.140  28.028  0.00  0.00    -0.054 F 
ENDBRANCH  27  28
ENDBRANCH  19  27
ENDBRANCH  17  19
ENDBRANCH  13  15
ENDBRANCH   7  13
BRANCH   6  32
ATOM     32  O   UNL     1     -19.351 -41.445  25.401  0.00  0.00    -0.412 OA
BRANCH  32  33
ATOM     33  P   UNL     1     -20.683 -42.517  25.327  0.00  0.00    +0.487 P 
ATOM     34  O   UNL     1     -21.563 -42.157  24.142  0.00  0.00    -0.233 OA
BRANCH  33  35
ATOM     35  C   UNL     1     -21.634 -42.467  26.841  0.00  0.00    +0.431 C 
ATOM     36  O   UNL     1     -21.910 -43.522  27.463  0.00  0.00    -0.235 OA
BRANCH  35  37
ATOM     37  O   UNL     1     -22.097 -41.268  27.373  0.00  0.00    -0.471 OA
ATOM     38  H   UNL     1     -21.503 -40.690  27.812  0.00  0.00    +0.296 HD
ENDBRANCH  35  37
ENDBRANCH  33  35
BRANCH  33  39
ATOM     39  O   UNL     1     -20.110 -44.069  25.107  0.00  0.00    -0.307 OA
ATOM     40  H   UNL     1     -20.564 -44.671  25.717  0.00  0.00    +0.221 HD
ENDBRANCH  33  39
ENDBRANCH  32  33
ENDBRANCH   6  32
TORSDOF 12
ENDMDL
