REMARK  Name = =
REMARK  11 active torsions:
REMARK  status: ('A' for Active; 'I' for Inactive)
REMARK    1  A    between atoms: C_1  and  C_18
REMARK    2  A    between atoms: C_1  and  O_30
REMARK    3  A    between atoms: C_18  and  N_20
REMARK    4  A    between atoms: C_19  and  C_27
REMARK    5  A    between atoms: N_20  and  N_23
REMARK    6  A    between atoms: C_27  and  O_29
REMARK    7  A    between atoms: O_30  and  O_31
REMARK    8  A    between atoms: O_31  and  S_32
REMARK    9  A    between atoms: S_32  and  C_35
REMARK   10  A    between atoms: S_32  and  C_37
REMARK   11  A    between atoms: C_35  and  N_36
REMARK                            x       y       z     vdW  Elec       q    Type
REMARK                         _______ _______ _______ _____ _____    ______ ____
ROOT
ATOM      1  C   UNL     1     -11.280 -42.627  30.060  0.00  0.00    +0.176 C 
ATOM      2  C   UNL     1     -11.847 -42.772  28.668  0.00  0.00    +0.044 C 
ATOM      3  C   UNL     1     -12.736 -44.003  28.623  0.00  0.00    +0.025 C 
ATOM      4  C   UNL     1     -11.822 -45.203  28.739  0.00  0.00    +0.012 C 
ATOM      5  C   UNL     1     -10.442 -44.778  29.048  0.00  0.00    +0.022 C 
ATOM      6  C   UNL     1      -9.365 -45.767  28.939  0.00  0.00    +0.009 C 
ATOM      7  C   UNL     1      -8.895 -46.361  30.215  0.00  0.00    +0.026 C 
ATOM      8  C   UNL     1      -8.740 -45.247  31.226  0.00  0.00    -0.031 C 
ATOM      9  C   UNL     1      -7.810 -45.397  32.134  0.00  0.00    -0.031 C 
ATOM     10  C   UNL     1      -7.545 -44.402  33.178  0.00  0.00    +0.026 C 
ATOM     11  C   UNL     1      -8.058 -43.058  32.845  0.00  0.00    +0.009 C 
ATOM     12  C   UNL     1      -9.498 -43.097  32.330  0.00  0.00    +0.026 C 
ATOM     13  C   UNL     1      -9.578 -44.057  31.200  0.00  0.00    -0.032 C 
ATOM     14  C   UNL     1     -10.369 -43.846  30.196  0.00  0.00    -0.016 C 
ATOM     15  C   UNL     1     -11.902 -45.944  27.425  0.00  0.00    +0.026 C 
ATOM     16  C   UNL     1     -13.022 -45.338  26.628  0.00  0.00    -0.031 C 
ATOM     17  C   UNL     1     -13.445 -44.078  27.312  0.00  0.00    -0.031 C 
ENDROOT
BRANCH   1  18
ATOM     18  C   UNL     1     -12.367 -42.677  31.052  0.00  0.00    +0.088 C 
ATOM     19  C   UNL     1     -12.305 -41.881  32.096  0.00  0.00    +0.097 C 
BRANCH  18  20
ATOM     20  N   UNL     1     -13.485 -43.535  30.914  0.00  0.00    -0.179 N 
ATOM     21  C   UNL     1     -14.690 -42.967  30.440  0.00  0.00    +0.324 C 
ATOM     22  O   UNL     1     -15.706 -43.680  30.306  0.00  0.00    -0.263 OA
BRANCH  20  23
ATOM     23  N   UNL     1     -13.485 -44.892  31.207  0.00  0.00    -0.211 N 
ATOM     24  C   UNL     1     -14.145 -45.483  32.338  0.00  0.00    +0.314 C 
ATOM     25  O   UNL     1     -14.779 -44.777  33.144  0.00  0.00    -0.251 OA
ATOM     26  N   UNL     1     -14.093 -46.902  32.571  0.00  0.00    -0.312 N 
ATOM     27  H   UNL     1     -12.998 -45.492  30.597  0.00  0.00    +0.175 HD
ATOM     28  H   UNL     1     -13.599 -47.485  31.950  0.00  0.00    +0.147 HD
ATOM     29  H   UNL     1     -14.551 -47.290  33.351  0.00  0.00    +0.147 HD
ENDBRANCH  20  23
ENDBRANCH  18  20
BRANCH  19  30
ATOM     30  C   UNL     1     -13.240 -41.755  33.185  0.00  0.00    +0.339 C 
ATOM     31  O   UNL     1     -12.928 -42.211  34.355  0.00  0.00    -0.245 OA
BRANCH  30  32
ATOM     32  O   UNL     1     -14.493 -41.183  33.153  0.00  0.00    -0.477 OA
ATOM     33  H   UNL     1     -14.822 -40.820  32.354  0.00  0.00    +0.295 HD
ENDBRANCH  30  32
ENDBRANCH  19  30
ENDBRANCH   1  18
BRANCH   1  34
ATOM     34  O   UNL     1     -10.510 -41.488  30.080  0.00  0.00    -0.204 OA
BRANCH  34  35
ATOM     35  O   UNL     1      -9.690 -41.330  29.094  0.00  0.00    -0.152 OA
BRANCH  35  36
ATOM     36  S   UNL     1      -8.565 -41.610  28.674  0.00  0.00    +0.111 S 
BRANCH  36  38
ATOM     37  S   UNL     1      -7.104 -40.203  26.459  0.00  0.00    -0.026 S 
ATOM     38  C   UNL     1      -7.810 -41.500  27.099  0.00  0.00    +0.136 C 
BRANCH  38  39
ATOM     39  N   UNL     1      -7.829 -42.685  26.301  0.00  0.00    -0.345 N 
ATOM     40  H   UNL     1      -7.419 -42.682  25.406  0.00  0.00    +0.143 HD
ATOM     41  H   UNL     1      -8.252 -43.504  26.646  0.00  0.00    +0.143 HD
ENDBRANCH  38  39
ENDBRANCH  36  38
BRANCH  36  42
ATOM     42  C   UNL     1      -7.418 -42.666  29.565  0.00  0.00    +0.158 C 
ATOM     43  N   UNL     1      -6.675 -43.367  30.135  0.00  0.00    -0.182 NA
ENDBRANCH  36  42
ENDBRANCH  35  36
ENDBRANCH  34  35
ENDBRANCH   1  34
TORSDOF 11
REMARK  Name = =
REMARK  11 active torsions:
REMARK  status: ('A' for Active; 'I' for Inactive)
REMARK    1  A    between atoms: C_1  and  C_18
REMARK    2  A    between atoms: C_1  and  O_30
REMARK    3  A    between atoms: C_18  and  N_20
REMARK    4  A    between atoms: C_19  and  C_27
REMARK    5  A    between atoms: N_20  and  N_23
REMARK    6  A    between atoms: C_27  and  O_29
REMARK    7  A    between atoms: O_30  and  O_31
REMARK    8  A    between atoms: O_31  and  S_32
REMARK    9  A    between atoms: S_32  and  C_35
REMARK   10  A    between atoms: S_32  and  C_37
REMARK   11  A    between atoms: C_35  and  N_36
REMARK                            x       y       z     vdW  Elec       q    Type
REMARK                         _______ _______ _______ _____ _____    ______ ____
ROOT
ATOM      1  H   UNK     1      -7.471 -40.090  29.232  0.00  0.00    +0.000 HD
ENDROOT
TORSDOF 0
