REMARK  Name = =
REMARK  4 active torsions:
REMARK  status: ('A' for Active; 'I' for Inactive)
REMARK    1  A    between atoms: C_1  and  C_22
REMARK    2  A    between atoms: C_2  and  N_12
REMARK    3  A    between atoms: C_21  and  N_33
REMARK    4  A    between atoms: C_24  and  C_27
REMARK                            x       y       z     vdW  Elec       q    Type
REMARK                         _______ _______ _______ _____ _____    ______ ____
ROOT
ATOM      1  C   UNL     1     -12.212 -42.985  30.380  0.00  0.00    +0.091 A 
ATOM      2  C   UNL     1     -11.402 -43.957  29.849  0.00  0.00    +0.066 A 
ATOM      3  C   UNL     1     -10.082 -43.970  30.244  0.00  0.00    +0.049 A 
ATOM      4  C   UNL     1      -9.566 -43.038  31.147  0.00  0.00    +0.150 A 
ATOM      5  C   UNL     1      -8.244 -43.067  31.529  0.00  0.00    +0.038 C 
ATOM      6  C   UNL     1      -7.443 -44.046  30.992  0.00  0.00    +0.003 C 
ATOM      7  C   UNL     1      -7.931 -44.969  30.104  0.00  0.00    +0.000 C 
ATOM      8  C   UNL     1      -9.247 -44.937  29.726  0.00  0.00    +0.004 C 
ATOM      9  O   UNL     1     -10.381 -42.129  31.623  0.00  0.00    -0.421 OA
ATOM     10  C   UNL     1     -11.660 -42.065  31.282  0.00  0.00    +0.347 A 
ATOM     11  O   UNL     1     -12.390 -41.168  31.774  0.00  0.00    -0.244 OA
ENDROOT
BRANCH   2  12
ATOM     12  N   UNL     1     -11.939 -44.875  28.913  0.00  0.00    -0.247 N 
ATOM     13  C   UNL     1     -12.122 -46.200  28.987  0.00  0.00    +0.172 C 
ATOM     14  N   UNL     1     -12.673 -46.673  27.830  0.00  0.00    -0.226 NA
ATOM     15  C   UNL     1     -12.848 -45.635  26.997  0.00  0.00    +0.097 C 
ATOM     16  C   UNL     1     -12.395 -44.534  27.669  0.00  0.00    +0.075 C 
ATOM     17  C   UNL     1     -12.465 -43.329  27.016  0.00  0.00    +0.017 C 
ATOM     18  C   UNL     1     -12.966 -43.207  25.738  0.00  0.00    +0.001 C 
ATOM     19  C   UNL     1     -13.409 -44.351  25.108  0.00  0.00    +0.002 C 
ATOM     20  C   UNL     1     -13.362 -45.587  25.717  0.00  0.00    +0.020 C 
ENDBRANCH   2  12
BRANCH   1  22
ATOM     21  C   UNL     1     -14.568 -43.346  30.884  0.00  0.00    +0.048 C 
ATOM     22  C   UNL     1     -13.612 -42.956  29.994  0.00  0.00    +0.021 C 
ATOM     23  C   UNL     1     -14.016 -42.562  28.731  0.00  0.00    +0.001 C 
ATOM     24  C   UNL     1     -15.358 -42.559  28.369  0.00  0.00    +0.000 C 
ATOM     25  C   UNL     1     -16.316 -42.956  29.277  0.00  0.00    +0.001 C 
ATOM     26  C   UNL     1     -15.933 -43.352  30.536  0.00  0.00    +0.015 C 
BRANCH  24  27
ATOM     27  C   UNL     1     -15.797 -42.148  27.046  0.00  0.00    +0.000 C 
ATOM     28  C   UNL     1     -17.045 -42.527  26.613  0.00  0.00    +0.000 C 
ATOM     29  C   UNL     1     -17.489 -42.148  25.353  0.00  0.00    +0.000 C 
ATOM     30  C   UNL     1     -16.719 -41.392  24.500  0.00  0.00    +0.000 C 
ATOM     31  C   UNL     1     -15.456 -41.016  24.955  0.00  0.00    +0.000 C 
ATOM     32  C   UNL     1     -15.014 -41.391  26.205  0.00  0.00    +0.000 C 
ENDBRANCH  24  27
BRANCH  21  33
ATOM     33  N   UNL     1     -14.292 -43.741  32.209  0.00  0.00    -0.307 N 
ATOM     34  C   UNL     1     -13.897 -42.896  33.285  0.00  0.00    +0.091 C 
ATOM     35  C   UNL     1     -14.628 -43.482  34.483  0.00  0.00    +0.023 C 
ATOM     36  C   UNL     1     -15.039 -44.884  34.124  0.00  0.00    +0.023 C 
ATOM     37  C   UNL     1     -14.370 -45.079  32.755  0.00  0.00    +0.091 C 
ENDBRANCH  21  33
ENDBRANCH   1  22
TORSDOF 4
