REMARK  Name = =
REMARK  2 active torsions:
REMARK  status: ('A' for Active; 'I' for Inactive)
REMARK    1  A    between atoms: C_1  and  C_16
REMARK    2  A    between atoms: C_6  and  S_17
REMARK                            x       y       z     vdW  Elec       q    Type
REMARK                         _______ _______ _______ _____ _____    ______ ____
ROOT
ATOM      1  C   UNL     1      50.677 157.394  29.264  0.00  0.00    +0.027 C 
ATOM      2  C   UNL     1      50.034 156.232  29.721  0.00  0.00    +0.099 C 
ATOM      3  N   UNL     1      49.142 156.266  30.691  0.00  0.00    -0.223 NA
ATOM      4  C   UNL     1      48.841 157.427  31.252  0.00  0.00    +0.199 C 
ATOM      5  N   UNL     1      49.424 158.539  30.850  0.00  0.00    -0.219 NA
ATOM      6  C   UNL     1      50.362 158.577  29.847  0.00  0.00    +0.095 C 
ENDROOT
BRANCH   1  16
ATOM      7  C   UNL     1      53.000 157.791  28.570  0.00  0.00    -0.022 C 
ATOM      8  C   UNL     1      53.990 157.571  27.715  0.00  0.00    -0.025 C 
ATOM      9  C   UNL     1      53.722 156.835  26.420  0.00  0.00    +0.052 C 
ATOM     10  C   UNL     1      52.911 155.644  26.879  0.00  0.00    -0.021 C 
ATOM     11  C   UNL     1      51.873 155.861  27.760  0.00  0.00    -0.018 C 
ATOM     12  C   UNL     1      51.085 154.834  28.234  0.00  0.00    -0.004 C 
ATOM     13  C   UNL     1      51.359 153.541  27.801  0.00  0.00    -0.000 C 
ATOM     14  C   UNL     1      52.404 153.347  26.919  0.00  0.00    -0.000 C 
ATOM     15  C   UNL     1      53.196 154.363  26.440  0.00  0.00    -0.004 C 
ATOM     16  C   UNL     1      51.642 157.272  28.166  0.00  0.00    +0.069 C 
ENDBRANCH   1  16
BRANCH   6  17
ATOM     17  S   UNL     1      51.072 160.158  29.474  0.00  0.00    -0.115 S 
ATOM     18  C   UNL     1      50.043 161.584  30.108  0.00  0.00    +0.135 C 
ATOM     19  C   UNL     1      50.760 161.820  31.351  0.00  0.00    +0.239 C 
ATOM     20  O   UNL     1      50.158 162.083  32.445  0.00  0.00    -0.274 OA
ATOM     21  N   UNL     1      52.156 161.726  31.218  0.00  0.00    -0.247 N 
ATOM     22  C   UNL     1      52.539 160.671  30.354  0.00  0.00    +0.265 C 
ATOM     23  O   UNL     1      53.707 160.226  30.269  0.00  0.00    -0.264 OA
ATOM     24  H   UNL     1      51.238 159.955  28.139  0.00  0.00    +0.098 HD
ATOM     25  H   UNL     1      52.793 162.324  31.672  0.00  0.00    +0.158 HD
ENDBRANCH   6  17
TORSDOF 2
