REMARK  Name = =
REMARK  0 active torsions:
REMARK  status: ('A' for Active; 'I' for Inactive)
REMARK                            x       y       z     vdW  Elec       q    Type
REMARK                         _______ _______ _______ _____ _____    ______ ____
ROOT
ATOM      1  C   UNL     1      52.102 155.782  28.667  0.00  0.00    +0.109 C 
ATOM      2  N   UNL     1      52.812 156.831  28.372  0.00  0.00    -0.295 NA
ATOM      3  H   UNL     1      53.603 157.058  28.912  0.00  0.00    +0.187 HD
ENDROOT
TORSDOF 0
