REMARK  Name = =
REMARK  1 active torsions:
REMARK  status: ('A' for Active; 'I' for Inactive)
REMARK    1  A    between atoms: C_1  and  C_22
REMARK                            x       y       z     vdW  Elec       q    Type
REMARK                         _______ _______ _______ _____ _____    ______ ____
ROOT
ATOM      1  C   UNL     1      51.329 155.427  29.474  0.00  0.00    +0.043 C 
ATOM      2  C   UNL     1      52.711 155.626  28.965  0.00  0.00    +0.006 C 
ATOM      3  C   UNL     1      53.139 154.852  27.808  0.00  0.00    +0.005 C 
ATOM      4  C   UNL     1      52.021 154.732  26.758  0.00  0.00    +0.030 C 
ATOM      5  C   UNL     1      52.742 153.960  25.706  0.00  0.00    +0.145 C 
ATOM      6  O   UNL     1      52.113 154.162  24.487  0.00  0.00    -0.327 OA
ATOM      7  C   UNL     1      53.054 154.832  23.710  0.00  0.00    +0.294 C 
ATOM      8  O   UNL     1      53.799 155.612  24.591  0.00  0.00    -0.327 OA
ATOM      9  C   UNL     1      54.064 154.699  25.631  0.00  0.00    +0.145 C 
ATOM     10  C   UNL     1      54.218 155.431  26.963  0.00  0.00    +0.032 C 
ATOM     11  C   UNL     1      50.922 153.964  27.448  0.00  0.00    +0.003 C 
ATOM     12  C   UNL     1      50.350 154.905  28.482  0.00  0.00    +0.006 C 
ATOM     13  C   UNL     1      53.298 156.964  29.169  0.00  0.00    +0.005 C 
ATOM     14  C   UNL     1      52.373 158.003  28.564  0.00  0.00    +0.022 C 
ATOM     15  C   UNL     1      51.115 157.913  29.349  0.00  0.00    -0.037 C 
ATOM     16  C   UNL     1      50.321 158.966  29.404  0.00  0.00    +0.034 C 
ATOM     17  C   UNL     1      49.058 158.940  30.165  0.00  0.00    +0.195 C 
ATOM     18  O   UNL     1      48.286 159.913  30.237  0.00  0.00    -0.287 OA
ATOM     19  C   UNL     1      48.756 157.664  30.848  0.00  0.00    +0.038 C 
ATOM     20  C   UNL     1      49.567 156.624  30.778  0.00  0.00    -0.019 C 
ATOM     21  C   UNL     1      50.787 156.698  30.023  0.00  0.00    +0.046 C 
ENDROOT
BRANCH   1  22
ATOM     22  C   UNL     1      51.412 154.465  30.609  0.00  0.00    +0.062 C 
ATOM     23  N   UNL     1      50.435 154.138  31.334  0.00  0.00    -0.302 NA
ATOM     24  H   UNL     1      50.561 153.495  32.069  0.00  0.00    +0.186 HD
ENDBRANCH   1  22
TORSDOF 1
