REMARK  Name = =
REMARK  2 active torsions:
REMARK  status: ('A' for Active; 'I' for Inactive)
REMARK    1  A    between atoms: C_1  and  C_22
REMARK    2  A    between atoms: N_27  and  C_28
REMARK                            x       y       z     vdW  Elec       q    Type
REMARK                         _______ _______ _______ _____ _____    ______ ____
ROOT
ATOM      1  C   UNL     1      51.363 156.065  28.672  0.00  0.00    +0.055 C 
ATOM      2  C   UNL     1      52.838 155.790  28.449  0.00  0.00    +0.008 C 
ATOM      3  C   UNL     1      53.062 154.551  27.753  0.00  0.00    +0.005 C 
ATOM      4  C   UNL     1      51.923 153.853  27.109  0.00  0.00    +0.030 C 
ATOM      5  C   UNL     1      52.462 152.975  26.010  0.00  0.00    +0.145 C 
ATOM      6  O   UNL     1      52.825 151.719  26.486  0.00  0.00    -0.327 OA
ATOM      7  C   UNL     1      54.014 151.370  25.847  0.00  0.00    +0.294 C 
ATOM      8  O   UNL     1      54.571 152.518  25.330  0.00  0.00    -0.327 OA
ATOM      9  C   UNL     1      53.770 153.599  25.659  0.00  0.00    +0.145 C 
ATOM     10  C   UNL     1      54.254 154.319  26.929  0.00  0.00    +0.032 C 
ATOM     11  C   UNL     1      50.936 154.810  26.496  0.00  0.00    +0.003 C 
ATOM     12  C   UNL     1      50.789 156.087  27.240  0.00  0.00    +0.008 C 
ATOM     13  C   UNL     1      53.563 157.002  28.042  0.00  0.00    +0.005 C 
ATOM     14  C   UNL     1      53.433 158.128  29.036  0.00  0.00    +0.022 C 
ATOM     15  C   UNL     1      52.029 158.299  29.538  0.00  0.00    -0.037 C 
ATOM     16  C   UNL     1      51.812 159.388  30.236  0.00  0.00    +0.034 C 
ATOM     17  C   UNL     1      50.472 159.690  30.796  0.00  0.00    +0.195 C 
ATOM     18  O   UNL     1      50.286 160.730  31.462  0.00  0.00    -0.287 OA
ATOM     19  C   UNL     1      49.473 158.684  30.494  0.00  0.00    +0.038 C 
ATOM     20  C   UNL     1      49.712 157.598  29.789  0.00  0.00    -0.019 C 
ATOM     21  C   UNL     1      51.012 157.332  29.264  0.00  0.00    +0.047 C 
ENDROOT
BRANCH   1  22
ATOM     22  C   UNL     1      50.684 154.880  29.340  0.00  0.00    +0.103 C 
ATOM     23  N   UNL     1      50.188 154.064  28.540  0.00  0.00    -0.289 NA
ATOM     24  N   UNL     1      50.869 154.335  30.579  0.00  0.00    -0.258 N 
ATOM     25  C   UNL     1      50.679 155.017  31.872  0.00  0.00    +0.307 C 
ATOM     26  O   UNL     1      50.115 156.068  31.662  0.00  0.00    -0.252 OA
ATOM     27  N   UNL     1      51.178 154.262  32.911  0.00  0.00    -0.261 N 
ATOM     28  H   UNL     1      50.005 154.334  27.611  0.00  0.00    +0.188 HD
ATOM     29  H   UNL     1      51.158 153.394  30.612  0.00  0.00    +0.157 HD
ATOM     30  H   UNL     1      51.846 153.540  32.953  0.00  0.00    +0.153 HD
BRANCH  27  31
ATOM     31  C   UNL     1      50.195 155.050  34.133  0.00  0.00    +0.278 C 
ATOM     32  O   UNL     1      49.499 155.851  33.661  0.00  0.00    -0.196 OA
ENDBRANCH  27  31
ENDBRANCH   1  22
TORSDOF 2
