REMARK  Name = =
REMARK  5 active torsions:
REMARK  status: ('A' for Active; 'I' for Inactive)
REMARK    1  A    between atoms: C_1  and  C_22
REMARK    2  A    between atoms: N_24  and  C_30
REMARK    3  A    between atoms: C_30  and  C_31
REMARK    4  A    between atoms: C_31  and  C_32
REMARK    5  A    between atoms: C_32  and  O_34
REMARK                            x       y       z     vdW  Elec       q    Type
REMARK                         _______ _______ _______ _____ _____    ______ ____
ROOT
ATOM      1  C   UNL     1      51.881 158.762  29.498  0.00  0.00    +0.073 C 
ATOM      2  C   UNL     1      52.619 157.472  30.015  0.00  0.00    +0.012 C 
ATOM      3  C   UNL     1      51.653 156.387  29.594  0.00  0.00    +0.010 C 
ATOM      4  C   UNL     1      52.072 156.162  28.126  0.00  0.00    +0.051 C 
ATOM      5  C   UNL     1      51.259 154.983  27.777  0.00  0.00    +0.149 C 
ATOM      6  O   UNL     1      51.984 154.198  26.862  0.00  0.00    -0.326 OA
ATOM      7  C   UNL     1      51.955 152.905  27.374  0.00  0.00    +0.294 C 
ATOM      8  O   UNL     1      52.067 153.047  28.769  0.00  0.00    -0.327 OA
ATOM      9  C   UNL     1      51.284 154.145  29.059  0.00  0.00    +0.145 C 
ATOM     10  C   UNL     1      51.925 155.035  30.133  0.00  0.00    +0.033 C 
ATOM     11  C   UNL     1      51.959 157.384  27.332  0.00  0.00    -0.028 C 
ATOM     12  C   UNL     1      51.723 158.668  28.015  0.00  0.00    -0.024 C 
ATOM     13  C   UNL     1      53.945 157.280  29.392  0.00  0.00    +0.005 C 
ATOM     14  C   UNL     1      54.685 158.531  28.988  0.00  0.00    +0.022 C 
ATOM     15  C   UNL     1      54.146 159.702  29.780  0.00  0.00    -0.037 C 
ATOM     16  C   UNL     1      55.016 160.545  30.269  0.00  0.00    +0.034 C 
ATOM     17  C   UNL     1      54.593 161.697  31.050  0.00  0.00    +0.195 C 
ATOM     18  O   UNL     1      55.444 162.508  31.519  0.00  0.00    -0.287 OA
ATOM     19  C   UNL     1      53.163 161.837  31.242  0.00  0.00    +0.038 C 
ATOM     20  C   UNL     1      52.295 160.954  30.720  0.00  0.00    -0.018 C 
ATOM     21  C   UNL     1      52.723 159.861  29.960  0.00  0.00    +0.051 C 
ENDROOT
BRANCH   1  22
ATOM     22  C   UNL     1      50.580 158.762  30.196  0.00  0.00    +0.110 C 
ATOM     23  N   UNL     1      50.513 158.006  31.318  0.00  0.00    -0.288 NA
ATOM     24  N   UNL     1      49.373 159.386  29.889  0.00  0.00    -0.231 N 
ATOM     25  C   UNL     1      48.927 160.290  28.940  0.00  0.00    +0.315 C 
ATOM     26  O   UNL     1      47.676 160.606  28.946  0.00  0.00    -0.252 OA
ATOM     27  N   UNL     1      49.656 160.940  27.939  0.00  0.00    -0.232 N 
ATOM     28  C   UNL     1      49.026 161.861  27.013  0.00  0.00    +0.307 C 
ATOM     29  O   UNL     1      47.795 162.096  27.097  0.00  0.00    -0.265 OA
ATOM     30  H   UNL     1      51.309 157.518  31.631  0.00  0.00    +0.188 HD
ATOM     31  H   UNL     1      50.622 160.768  27.861  0.00  0.00    +0.160 HD
BRANCH  24  32
ATOM     32  C   UNL     1      48.243 158.998  30.799  0.00  0.00    +0.113 C 
BRANCH  32  33
ATOM     33  C   UNL     1      47.279 159.888  30.845  0.00  0.00    +0.131 C 
BRANCH  33  34
ATOM     34  C   UNL     1      46.127 159.623  31.693  0.00  0.00    +0.316 C 
ATOM     35  O   UNL     1      46.299 159.001  32.764  0.00  0.00    -0.250 OA
BRANCH  34  36
ATOM     36  O   UNL     1      44.840 160.029  31.369  0.00  0.00    -0.480 OA
ATOM     37  H   UNL     1      44.683 160.497  30.572  0.00  0.00    +0.295 HD
ENDBRANCH  34  36
ENDBRANCH  33  34
ENDBRANCH  32  33
ENDBRANCH  24  32
ENDBRANCH   1  22
TORSDOF 5
