REMARK  Name = =
REMARK  5 active torsions:
REMARK  status: ('A' for Active; 'I' for Inactive)
REMARK    1  A    between atoms: N_1  and  C_7
REMARK    2  A    between atoms: N_4  and  C_23
REMARK    3  A    between atoms: C_13  and  C_17
REMARK    4  A    between atoms: C_24  and  O_34
REMARK    5  A    between atoms: C_28  and  C_29
REMARK                            x       y       z     vdW  Elec       q    Type
REMARK                         _______ _______ _______ _____ _____    ______ ____
ROOT
ATOM      1  N   UNL     1     -15.050 -42.005  26.182  0.00  0.00    -0.307 N 
ATOM      2  C   UNL     1     -14.663 -41.344  27.375  0.00  0.00    +0.112 C 
ATOM      3  C   UNL     1     -13.131 -41.417  27.450  0.00  0.00    +0.112 C 
ATOM      4  N   UNL     1     -12.783 -42.808  27.665  0.00  0.00    -0.302 N 
ATOM      5  C   UNL     1     -13.717 -43.776  27.070  0.00  0.00    +0.112 C 
ATOM      6  C   UNL     1     -14.238 -43.121  25.814  0.00  0.00    +0.112 C 
ENDROOT
BRANCH   1   7
ATOM      7  C   UNL     1     -16.418 -42.222  25.983  0.00  0.00    +0.025 C 
ATOM      8  C   UNL     1     -17.339 -42.242  26.938  0.00  0.00    -0.011 C 
ATOM      9  C   UNL     1     -18.789 -42.484  26.625  0.00  0.00    +0.053 C 
ATOM     10  C   UNL     1     -19.112 -41.741  25.371  0.00  0.00    -0.021 C 
ATOM     11  C   UNL     1     -18.165 -41.734  24.378  0.00  0.00    -0.020 C 
ATOM     12  C   UNL     1     -18.369 -41.070  23.179  0.00  0.00    -0.003 C 
ATOM     13  C   UNL     1     -19.541 -40.390  22.942  0.00  0.00    +0.021 C 
ATOM     14  C   UNL     1     -20.491 -40.409  23.964  0.00  0.00    +0.001 C 
ATOM     15  C   UNL     1     -20.281 -41.071  25.154  0.00  0.00    -0.004 C 
ATOM     16  C   UNL     1     -16.897 -42.452  24.592  0.00  0.00    +0.067 C 
BRANCH  13  17
ATOM     17  C   UNL     1     -19.827 -39.675  21.717  0.00  0.00    +0.122 C 
ATOM     18  N   UNL     1     -20.980 -38.998  21.585  0.00  0.00    -0.145 NA
ATOM     19  N   UNL     1     -21.294 -38.327  20.488  0.00  0.00    -0.125 NA
ATOM     20  C   UNL     1     -20.463 -38.287  19.436  0.00  0.00    +0.222 C 
ATOM     21  N   UNL     1     -19.302 -38.949  19.526  0.00  0.00    -0.219 NA
ATOM     22  C   UNL     1     -18.961 -39.646  20.650  0.00  0.00    +0.122 C 
ENDBRANCH  13  17
ENDBRANCH   1   7
BRANCH   4  23
ATOM     23  C   UNL     1     -11.642 -43.243  28.389  0.00  0.00    +0.082 C 
ATOM     24  C   UNL     1     -10.383 -42.943  27.844  0.00  0.00    +0.147 C 
ATOM     25  C   UNL     1      -9.239 -43.352  28.489  0.00  0.00    +0.038 C 
ATOM     26  C   UNL     1      -9.261 -44.057  29.673  0.00  0.00    +0.003 C 
ATOM     27  C   UNL     1     -10.501 -44.346  30.199  0.00  0.00    +0.002 C 
ATOM     28  C   UNL     1     -11.676 -43.945  29.567  0.00  0.00    +0.021 C 
BRANCH  28  29
ATOM     29  C   UNL     1     -12.921 -44.305  30.207  0.00  0.00    +0.064 C 
ATOM     30  C   UNL     1     -13.039 -45.410  31.048  0.00  0.00    +0.214 C 
ATOM     31  O   UNL     1     -14.261 -45.502  31.499  0.00  0.00    -0.350 OA
ATOM     32  N   UNL     1     -14.961 -44.524  31.010  0.00  0.00    -0.075 NA
ATOM     33  C   UNL     1     -14.176 -43.751  30.200  0.00  0.00    +0.144 C 
ENDBRANCH  28  29
BRANCH  24  34
ATOM     34  O   UNL     1     -10.282 -42.240  26.659  0.00  0.00    -0.504 OA
ATOM     35  H   UNL     1     -11.057 -41.958  26.214  0.00  0.00    +0.292 HD
ENDBRANCH  24  34
ENDBRANCH   4  23
TORSDOF 5
