REMARK  Name = =
REMARK  0 active torsions:
REMARK  status: ('A' for Active; 'I' for Inactive)
REMARK                            x       y       z     vdW  Elec       q    Type
REMARK                         _______ _______ _______ _____ _____    ______ ____
ROOT
ATOM      1  O   UNL     1      52.119 155.342  28.195  0.00  0.00    -0.445 OA
ATOM      2  C   UNL     1      51.305 154.159  28.041  0.00  0.00    +0.213 C 
ATOM      3  C   UNL     1      52.242 153.023  27.731  0.00  0.00    +0.074 C 
ATOM      4  C   UNL     1      52.932 153.305  26.459  0.00  0.00    -0.012 C 
ATOM      5  C   UNL     1      53.229 154.603  26.141  0.00  0.00    +0.072 C 
ATOM      6  C   UNL     1      53.899 154.855  24.960  0.00  0.00    +0.006 C 
ATOM      7  C   UNL     1      54.266 153.837  24.110  0.00  0.00    +0.000 C 
ATOM      8  C   UNL     1      53.969 152.528  24.424  0.00  0.00    -0.000 C 
ATOM      9  C   UNL     1      53.301 152.265  25.600  0.00  0.00    -0.004 C 
ATOM     10  C   UNL     1      52.817 155.697  27.034  0.00  0.00    +0.341 C 
ATOM     11  O   UNL     1      53.080 156.869  26.762  0.00  0.00    -0.245 OA
ENDROOT
TORSDOF 0
