REMARK  Name = =
REMARK  3 active torsions:
REMARK  status: ('A' for Active; 'I' for Inactive)
REMARK    1  A    between atoms: N_1  and  C_5
REMARK    2  A    between atoms: C_2  and  C_15
REMARK    3  A    between atoms: C_16  and  O_21
REMARK                            x       y       z     vdW  Elec       q    Type
REMARK                         _______ _______ _______ _____ _____    ______ ____
ROOT
ATOM      1  N   UNL     1      52.009 154.035  27.760  0.00  0.00    -0.268 N 
ATOM      2  C   UNL     1      52.316 153.039  28.687  0.00  0.00    +0.251 C 
ATOM      3  O   UNL     1      53.517 153.060  29.135  0.00  0.00    -0.270 OA
ATOM      4  H   UNL     1      51.100 154.069  27.382  0.00  0.00    +0.153 HD
ENDROOT
BRANCH   1   6
ATOM      5  O   UNL     1      52.401 155.799  26.337  0.00  0.00    -0.429 OA
ATOM      6  C   UNL     1      52.995 155.037  27.327  0.00  0.00    +0.251 C 
ATOM      7  C   UNL     1      54.227 154.296  26.936  0.00  0.00    +0.092 C 
ATOM      8  C   UNL     1      54.491 154.256  25.500  0.00  0.00    -0.010 C 
ATOM      9  C   UNL     1      53.775 154.928  24.547  0.00  0.00    +0.072 C 
ATOM     10  C   UNL     1      54.075 154.848  23.204  0.00  0.00    +0.006 C 
ATOM     11  C   UNL     1      55.144 154.059  22.783  0.00  0.00    +0.000 C 
ATOM     12  C   UNL     1      55.875 153.376  23.721  0.00  0.00    -0.000 C 
ATOM     13  C   UNL     1      55.543 153.482  25.053  0.00  0.00    -0.004 C 
ATOM     14  C   UNL     1      52.663 155.750  24.981  0.00  0.00    +0.342 C 
ATOM     15  O   UNL     1      51.956 156.400  24.149  0.00  0.00    -0.245 OA
ENDBRANCH   1   6
BRANCH   2  16
ATOM     16  C   UNL     1      51.439 152.013  29.180  0.00  0.00    +0.087 C 
ATOM     17  C   UNL     1      50.643 152.146  30.285  0.00  0.00    +0.138 C 
ATOM     18  C   UNL     1      49.820 151.100  30.695  0.00  0.00    +0.037 C 
ATOM     19  C   UNL     1      49.747 149.892  30.041  0.00  0.00    +0.003 C 
ATOM     20  C   UNL     1      50.552 149.767  28.929  0.00  0.00    +0.000 C 
ATOM     21  C   UNL     1      51.370 150.780  28.505  0.00  0.00    +0.008 C 
BRANCH  17  22
ATOM     22  O   UNL     1      50.629 153.332  31.036  0.00  0.00    -0.505 OA
ATOM     23  H   UNL     1      51.172 154.053  30.784  0.00  0.00    +0.292 HD
ENDBRANCH  17  22
ENDBRANCH   2  16
TORSDOF 3
