REMARK  Name = =
REMARK  4 active torsions:
REMARK  status: ('A' for Active; 'I' for Inactive)
REMARK    1  A    between atoms: C_2  and  C_12
REMARK    2  A    between atoms: C_2  and  N_30
REMARK    3  A    between atoms: C_31  and  C_33
REMARK    4  A    between atoms: C_34  and  O_39
REMARK                            x       y       z     vdW  Elec       q    Type
REMARK                         _______ _______ _______ _____ _____    ______ ____
ROOT
ATOM      1  O   UNL     1      53.150 151.972  26.892  0.00  0.00    -0.435 OA
ATOM      2  C   UNL     1      54.475 152.163  26.557  0.00  0.00    +0.201 C 
ATOM      3  C   UNL     1      55.113 150.991  25.776  0.00  0.00    +0.087 C 
ATOM      4  C   UNL     1      54.163 149.950  25.398  0.00  0.00    -0.011 C 
ATOM      5  C   UNL     1      52.838 149.893  25.711  0.00  0.00    +0.072 C 
ATOM      6  C   UNL     1      51.980 148.874  25.321  0.00  0.00    +0.006 C 
ATOM      7  C   UNL     1      52.473 147.838  24.564  0.00  0.00    +0.000 C 
ATOM      8  C   UNL     1      53.810 147.876  24.237  0.00  0.00    -0.000 C 
ATOM      9  C   UNL     1      54.654 148.887  24.627  0.00  0.00    -0.004 C 
ATOM     10  C   UNL     1      52.300 150.983  26.514  0.00  0.00    +0.342 C 
ATOM     11  O   UNL     1      51.096 151.008  26.846  0.00  0.00    -0.245 OA
ENDROOT
BRANCH   2  12
ATOM     12  C   UNL     1      55.401 152.511  27.667  0.00  0.00    +0.055 C 
ATOM     13  C   UNL     1      56.764 152.901  27.435  0.00  0.00    +0.005 C 
ATOM     14  C   UNL     1      57.631 152.633  28.595  0.00  0.00    +0.000 C 
ATOM     15  C   UNL     1      58.720 151.706  28.262  0.00  0.00    +0.000 C 
ATOM     16  C   UNL     1      58.759 151.120  26.926  0.00  0.00    +0.000 C 
ATOM     17  C   UNL     1      60.083 150.503  26.580  0.00  0.00    +0.001 C 
ATOM     18  C   UNL     1      60.762 149.837  27.721  0.00  0.00    +0.007 C 
ATOM     19  C   UNL     1      60.762 150.608  28.996  0.00  0.00    +0.000 C 
ATOM     20  C   UNL     1      60.049 151.955  28.877  0.00  0.00    +0.000 C 
ATOM     21  C   UNL     1      60.484 148.384  27.873  0.00  0.00    +0.064 C 
ATOM     22  C   UNL     1      59.300 147.878  27.183  0.00  0.00    +0.151 C 
ATOM     23  O   UNL     1      58.776 146.850  27.564  0.00  0.00    -0.296 OA
ATOM     24  C   UNL     1      58.709 148.585  26.018  0.00  0.00    +0.065 C 
ATOM     25  C   UNL     1      59.817 149.493  25.472  0.00  0.00    +0.008 C 
ATOM     26  C   UNL     1      58.267 151.909  25.791  0.00  0.00    +0.000 C 
ATOM     27  C   UNL     1      57.423 153.125  26.188  0.00  0.00    +0.000 C 
ATOM     28  C   UNL     1      56.660 152.077  29.639  0.00  0.00    +0.000 C 
ATOM     29  C   UNL     1      55.542 151.456  28.712  0.00  0.00    +0.005 C 
ENDBRANCH   2  12
BRANCH   2  30
ATOM     30  N   UNL     1      54.512 153.255  25.613  0.00  0.00    -0.272 N 
ATOM     31  C   UNL     1      54.097 154.553  25.954  0.00  0.00    +0.251 C 
ATOM     32  O   UNL     1      53.652 154.764  27.106  0.00  0.00    -0.270 OA
ATOM     33  H   UNL     1      54.839 153.084  24.700  0.00  0.00    +0.153 HD
BRANCH  31  34
ATOM     34  C   UNL     1      54.152 155.686  25.040  0.00  0.00    +0.087 C 
ATOM     35  C   UNL     1      53.298 156.741  25.221  0.00  0.00    +0.138 C 
ATOM     36  C   UNL     1      53.348 157.803  24.368  0.00  0.00    +0.037 C 
ATOM     37  C   UNL     1      54.244 157.842  23.318  0.00  0.00    +0.003 C 
ATOM     38  C   UNL     1      55.092 156.778  23.152  0.00  0.00    +0.000 C 
ATOM     39  C   UNL     1      55.062 155.682  24.009  0.00  0.00    +0.008 C 
BRANCH  35  40
ATOM     40  O   UNL     1      52.402 156.708  26.268  0.00  0.00    -0.505 OA
ATOM     41  H   UNL     1      52.382 155.970  26.844  0.00  0.00    +0.292 HD
ENDBRANCH  35  40
ENDBRANCH  31  34
ENDBRANCH   2  30
TORSDOF 4
