MODEL 1
REMARK VINA RESULT:    -8.819      0.000      0.000
REMARK INTER + INTRA:         -13.312
REMARK INTER:                 -13.974
REMARK INTRA:                   0.662
REMARK UNBOUND:                 0.662
REMARK  Name = =
REMARK  11 active torsions:
REMARK  status: ('A' for Active; 'I' for Inactive)
REMARK    1  A    between atoms: C_1  and  S_21
REMARK    2  A    between atoms: C_1  and  S_34
REMARK    3  A    between atoms: C_5  and  N_7
REMARK    4  A    between atoms: C_5  and  O_24
REMARK    5  A    between atoms: C_8  and  N_14
REMARK    6  A    between atoms: C_9  and  O_20
REMARK    7  A    between atoms: N_14  and  N_18
REMARK    8  A    between atoms: O_24  and  C_25
REMARK    9  A    between atoms: C_25  and  C_27
REMARK   10  A    between atoms: C_30  and  O_33
REMARK   11  A    between atoms: S_34  and  C_35
REMARK                            x       y       z     vdW  Elec       q    Type
REMARK                         _______ _______ _______ _____ _____    ______ ____
ROOT
ATOM      1  C   UNL     1      -0.005  -3.020  28.215  0.00  0.00    +0.294 C 
ATOM      2  O   UNL     1       0.519  -4.268  27.769  0.00  0.00    -0.422 OA
ATOM      3  C   UNL     1      -0.362  -5.286  28.162  0.00  0.00    +0.375 C 
ATOM      4  O   UNL     1      -0.706  -6.244  27.445  0.00  0.00    -0.244 OA
ATOM      5  C   UNL     1      -0.717  -4.897  29.559  0.00  0.00    +0.298 C 
ATOM      6  C   UNL     1      -0.892  -3.382  29.360  0.00  0.00    +0.147 C 
ENDROOT
BRANCH   5   7
ATOM      7  N   UNL     1       0.252  -5.265  30.536  0.00  0.00    -0.233 N 
ATOM      8  C   UNL     1       0.102  -6.436  31.171  0.00  0.00    +0.175 C 
ATOM      9  C   UNL     1       1.060  -6.787  32.135  0.00  0.00    +0.203 C 
ATOM     10  C   UNL     1       2.134  -5.999  32.458  0.00  0.00    +0.233 C 
ATOM     11  O   UNL     1       2.991  -6.308  33.318  0.00  0.00    -0.283 OA
ATOM     12  C   UNL     1       2.255  -4.806  31.787  0.00  0.00    +0.062 C 
ATOM     13  C   UNL     1       1.308  -4.446  30.824  0.00  0.00    +0.073 C 
BRANCH   8  14
ATOM     14  N   UNL     1      -0.955  -7.340  30.923  0.00  0.00    -0.090 N 
ATOM     15  C   UNL     1      -0.728  -8.293  29.879  0.00  0.00    +0.327 C 
ATOM     16  O   UNL     1       0.339  -8.341  29.214  0.00  0.00    -0.251 OA
ATOM     17  N   UNL     1      -1.730  -9.243  29.552  0.00  0.00    -0.311 N 
ATOM     18  H   UNL     1      -2.584  -9.247  30.043  0.00  0.00    +0.147 HD
ATOM     19  H   UNL     1      -1.573  -9.899  28.835  0.00  0.00    +0.147 HD
BRANCH  14  20
ATOM     20  N   UNL     1      -2.164  -7.412  31.592  0.00  0.00    +0.059 NA
ATOM     21  O   UNL     1      -2.342  -8.189  32.523  0.00  0.00    -0.125 OA
ENDBRANCH  14  20
ENDBRANCH   8  14
BRANCH   9  22
ATOM     22  O   UNL     1       0.895  -8.003  32.788  0.00  0.00    -0.501 OA
ATOM     23  H   UNL     1       1.186  -8.102  33.673  0.00  0.00    +0.292 HD
ENDBRANCH   9  22
ENDBRANCH   5   7
BRANCH   1  24
ATOM     24  S   UNL     1      -0.939  -2.338  26.833  0.00  0.00    +0.010 S 
ATOM     25  O   UNL     1      -0.072  -2.168  25.631  0.00  0.00    -0.172 OA
ATOM     26  O   UNL     1      -1.566  -1.021  27.251  0.00  0.00    -0.172 OA
ATOM     27  H   UNL     1      -1.928  -3.208  26.493  0.00  0.00    +0.215 HD
ENDBRANCH   1  24
BRANCH   5  28
ATOM     28  O   UNL     1      -2.022  -5.367  29.883  0.00  0.00    -0.424 OA
BRANCH  28  29
ATOM     29  C   UNL     1      -3.085  -4.453  29.763  0.00  0.00    +0.343 C 
ATOM     30  O   UNL     1      -3.364  -4.007  28.623  0.00  0.00    -0.245 OA
BRANCH  29  31
ATOM     31  C   UNL     1      -3.824  -4.057  30.955  0.00  0.00    +0.076 C 
ATOM     32  C   UNL     1      -4.552  -2.888  30.985  0.00  0.00    +0.010 C 
ATOM     33  C   UNL     1      -5.256  -2.497  32.105  0.00  0.00    +0.037 C 
ATOM     34  C   UNL     1      -5.240  -3.290  33.231  0.00  0.00    +0.134 C 
ATOM     35  C   UNL     1      -4.516  -4.481  33.241  0.00  0.00    +0.037 C 
ATOM     36  C   UNL     1      -3.831  -4.824  32.099  0.00  0.00    +0.010 C 
BRANCH  34  37
ATOM     37  O   UNL     1      -5.949  -2.892  34.350  0.00  0.00    -0.506 OA
ATOM     38  H   UNL     1      -6.734  -2.388  34.253  0.00  0.00    +0.292 HD
ENDBRANCH  34  37
ENDBRANCH  29  31
ENDBRANCH  28  29
ENDBRANCH   5  28
BRANCH   1  39
ATOM     39  S   UNL     1       1.252  -1.819  28.635  0.00  0.00    +0.003 S 
BRANCH  39  40
ATOM     40  C   UNL     1       2.733  -2.087  27.678  0.00  0.00    +0.275 C 
ATOM     41  O   UNL     1       3.148  -1.249  26.843  0.00  0.00    -0.263 OA
ATOM     42  N   UNL     1       3.453  -3.294  27.878  0.00  0.00    -0.320 N 
ATOM     43  H   UNL     1       3.132  -3.956  28.532  0.00  0.00    +0.146 HD
ATOM     44  H   UNL     1       4.273  -3.468  27.362  0.00  0.00    +0.146 HD
ENDBRANCH  39  40
ENDBRANCH   1  39
TORSDOF 11
ENDMDL
