MODEL 1
REMARK VINA RESULT:    -9.981      0.000      0.000
REMARK INTER + INTRA:         -14.852
REMARK INTER:                 -13.482
REMARK INTRA:                  -1.370
REMARK UNBOUND:                -1.370
REMARK  Name = =
REMARK  6 active torsions:
REMARK  status: ('A' for Active; 'I' for Inactive)
REMARK    1  A    between atoms: N_1  and  C_2
REMARK    2  A    between atoms: N_1  and  N_18
REMARK    3  A    between atoms: N_1  and  O_23
REMARK    4  A    between atoms: O_23  and  C_28
REMARK    5  A    between atoms: C_26  and  N_32
REMARK    6  A    between atoms: C_34  and  N_35
REMARK                            x       y       z     vdW  Elec       q    Type
REMARK                         _______ _______ _______ _____ _____    ______ ____
ROOT
ATOM      1  N   UNL     1      -0.418  -6.276  29.374  0.00  0.00    -0.091 N 
ENDROOT
BRANCH   1   2
ATOM      2  C   UNL     1      -1.126  -6.781  30.489  0.00  0.00    +0.120 C 
ATOM      3  C   UNL     1      -0.741  -8.070  30.947  0.00  0.00    +0.022 C 
ATOM      4  C   UNL     1      -1.369  -8.604  32.036  0.00  0.00    +0.002 C 
ATOM      5  C   UNL     1      -2.360  -7.914  32.686  0.00  0.00    +0.003 C 
ATOM      6  C   UNL     1      -2.730  -6.663  32.235  0.00  0.00    +0.044 C 
ATOM      7  C   UNL     1      -2.114  -6.079  31.125  0.00  0.00    +0.063 C 
ATOM      8  C   UNL     1      -2.557  -4.770  30.666  0.00  0.00    +0.197 C 
ATOM      9  O   UNL     1      -2.019  -4.249  29.664  0.00  0.00    -0.287 OA
ATOM     10  C   UNL     1      -3.620  -4.062  31.351  0.00  0.00    +0.042 C 
ATOM     11  C   UNL     1      -4.044  -2.804  30.927  0.00  0.00    +0.003 C 
ATOM     12  C   UNL     1      -5.046  -2.106  31.557  0.00  0.00    +0.000 C 
ATOM     13  C   UNL     1      -5.659  -2.660  32.651  0.00  0.00    +0.000 C 
ATOM     14  C   UNL     1      -5.251  -3.901  33.084  0.00  0.00    +0.003 C 
ATOM     15  C   UNL     1      -4.226  -4.608  32.433  0.00  0.00    +0.042 C 
ATOM     16  C   UNL     1      -3.800  -5.919  32.901  0.00  0.00    +0.196 C 
ATOM     17  O   UNL     1      -4.339  -6.462  33.908  0.00  0.00    -0.287 OA
ENDBRANCH   1   2
BRANCH   1  18
ATOM     18  N   UNL     1       0.704  -5.446  29.661  0.00  0.00    -0.074 N 
ATOM     19  N   UNL     1       1.126  -4.302  29.258  0.00  0.00    -0.132 NA
ATOM     20  C   UNL     1       2.309  -4.013  29.814  0.00  0.00    +0.221 C 
ATOM     21  N   UNL     1       2.626  -5.059  30.613  0.00  0.00    -0.201 NA
ATOM     22  C   UNL     1       1.641  -5.951  30.526  0.00  0.00    +0.212 C 
ENDBRANCH   1  18
BRANCH   1  23
ATOM     23  O   UNL     1      -0.636  -6.482  28.065  0.00  0.00    -0.301 OA
BRANCH  23  28
ATOM     24  S   UNL     1       2.968  -8.379  27.892  0.00  0.00    -0.135 S 
ATOM     25  C   UNL     1       3.148  -6.784  27.062  0.00  0.00    +0.094 C 
ATOM     26  C   UNL     1       1.740  -6.372  26.545  0.00  0.00    +0.151 C 
ATOM     27  N   UNL     1       0.931  -7.548  26.520  0.00  0.00    -0.231 N 
ATOM     28  C   UNL     1      -0.279  -7.574  27.281  0.00  0.00    +0.431 C 
ATOM     29  O   UNL     1      -1.056  -8.548  27.289  0.00  0.00    -0.224 OA
ATOM     30  C   UNL     1       1.306  -8.730  25.810  0.00  0.00    +0.110 C 
ATOM     31  C   UNL     1       2.279  -9.537  26.677  0.00  0.00    +0.079 C 
BRANCH  26  32
ATOM     32  N   UNL     1       1.886  -5.579  25.443  0.00  0.00    -0.242 NA
ATOM     33  C   UNL     1       2.622  -5.687  24.254  0.00  0.00    +0.108 C 
ATOM     34  C   UNL     1       2.685  -4.455  25.155  0.00  0.00    +0.136 C 
BRANCH  34  35
ATOM     35  N   UNL     1       1.878  -3.284  24.825  0.00  0.00    -0.261 NA
ATOM     36  C   UNL     1       2.495  -2.345  23.957  0.00  0.00    +0.059 C 
ATOM     37  C   UNL     1       1.453  -1.995  22.882  0.00  0.00    +0.016 C 
ATOM     38  C   UNL     1       2.190  -1.236  21.799  0.00  0.00    +0.001 C 
ATOM     39  C   UNL     1       3.053  -0.192  22.450  0.00  0.00    +0.000 C 
ATOM     40  C   UNL     1       2.591   0.096  23.872  0.00  0.00    +0.001 C 
ATOM     41  C   UNL     1       2.802  -1.103  24.763  0.00  0.00    +0.016 C 
ATOM     42  C   UNL     1       1.812  -1.147  25.897  0.00  0.00    +0.019 C 
ATOM     43  C   UNL     1       1.596  -2.635  26.087  0.00  0.00    +0.073 C 
ENDBRANCH  34  35
ENDBRANCH  26  32
ENDBRANCH  23  28
ENDBRANCH   1  23
TORSDOF 6
ENDMDL
