REMARK  Name = =
REMARK  1 active torsions:
REMARK  status: ('A' for Active; 'I' for Inactive)
REMARK    1  A    between atoms: C_6  and  C_8
REMARK                            x       y       z     vdW  Elec       q    Type
REMARK                         _______ _______ _______ _____ _____    ______ ____
ROOT
ATOM      1  N   UNL     1      -3.674  -4.147  31.439  0.00  0.00    -0.276 N 
ATOM      2  C   UNL     1      -4.192  -4.179  32.792  0.00  0.00    +0.094 C 
ATOM      3  C   UNL     1      -5.534  -3.460  32.603  0.00  0.00    +0.023 C 
ATOM      4  C   UNL     1      -5.111  -2.305  31.719  0.00  0.00    +0.023 C 
ATOM      5  C   UNL     1      -4.216  -3.008  30.723  0.00  0.00    +0.094 C 
ATOM      6  C   UNL     1      -2.770  -5.070  30.853  0.00  0.00    +0.249 C 
ATOM      7  O   UNL     1      -2.358  -6.027  31.563  0.00  0.00    -0.270 OA
ENDROOT
BRANCH   6   8
ATOM      8  C   UNL     1      -2.314  -4.931  29.461  0.00  0.00    +0.058 C 
ATOM      9  C   UNL     1      -1.334  -5.710  29.023  0.00  0.00    +0.005 C 
ENDBRANCH   6   8
TORSDOF 1
