REMARK  Name = =
REMARK  1 active torsions:
REMARK  status: ('A' for Active; 'I' for Inactive)
REMARK    1  A    between atoms: C_7  and  C_9
REMARK                            x       y       z     vdW  Elec       q    Type
REMARK                         _______ _______ _______ _____ _____    ______ ____
ROOT
ATOM      1  N   UNL     1      -4.073  -4.462  31.758  0.00  0.00    -0.275 N 
ATOM      2  C   UNL     1      -4.703  -3.656  30.758  0.00  0.00    +0.104 C 
ATOM      3  C   UNL     1      -5.819  -2.900  31.478  0.00  0.00    +0.074 C 
ATOM      4  I   UNL     1      -5.262  -0.879  31.791  0.00  0.00    -0.073 I 
ATOM      5  C   UNL     1      -5.972  -3.658  32.795  0.00  0.00    +0.034 C 
ATOM      6  C   UNL     1      -4.541  -3.972  33.079  0.00  0.00    +0.095 C 
ATOM      7  C   UNL     1      -3.147  -5.516  31.614  0.00  0.00    +0.249 C 
ATOM      8  O   UNL     1      -2.776  -6.118  32.692  0.00  0.00    -0.270 OA
ENDROOT
BRANCH   7   9
ATOM      9  C   UNL     1      -2.590  -5.972  30.403  0.00  0.00    +0.058 C 
ATOM     10  C   UNL     1      -2.284  -5.271  29.356  0.00  0.00    +0.005 C 
ENDBRANCH   7   9
TORSDOF 1
