REMARK  Name = =
REMARK  2 active torsions:
REMARK  status: ('A' for Active; 'I' for Inactive)
REMARK    1  A    between atoms: N_1  and  C_13
REMARK    2  A    between atoms: C_12  and  C_20
REMARK                            x       y       z     vdW  Elec       q    Type
REMARK                         _______ _______ _______ _____ _____    ______ ____
ROOT
ATOM      1  N   UNL     1      -0.809  -5.311  28.984  0.00  0.00    -0.241 N 
ATOM      2  C   UNL     1       0.036  -6.344  29.156  0.00  0.00    +0.174 C 
ATOM      3  N   UNL     1      -0.553  -7.143  30.071  0.00  0.00    -0.209 NA
ATOM      4  C   UNL     1      -1.728  -6.633  30.462  0.00  0.00    +0.164 A 
ATOM      5  C   UNL     1      -1.901  -5.439  29.758  0.00  0.00    +0.148 A 
ATOM      6  C   UNL     1      -3.051  -4.719  29.992  0.00  0.00    +0.278 A 
ATOM      7  O   UNL     1      -3.250  -3.646  29.386  0.00  0.00    -0.266 OA
ATOM      8  N   UNL     1      -3.982  -5.137  30.862  0.00  0.00    -0.273 N 
ATOM      9  C   UNL     1      -3.775  -6.299  31.522  0.00  0.00    +0.328 A 
ATOM     10  O   UNL     1      -4.620  -6.719  32.339  0.00  0.00    -0.247 OA
ATOM     11  N   UNL     1      -2.669  -7.040  31.332  0.00  0.00    -0.291 N 
ATOM     12  H   UNL     1      -4.799  -4.609  31.017  0.00  0.00    +0.173 HD
ATOM     13  H   UNL     1      -2.548  -7.881  31.830  0.00  0.00    +0.172 HD
ENDROOT
BRANCH   1  15
ATOM     14  C   UNL     1       0.507  -4.070  27.430  0.00  0.00    +0.074 C 
ATOM     15  C   UNL     1      -0.610  -4.189  28.095  0.00  0.00    +0.076 C 
BRANCH  14  22
ATOM     16  N   UNL     1       0.025  -2.503  25.505  0.00  0.00    -0.275 N 
ATOM     17  C   UNL     1      -1.295  -2.803  25.007  0.00  0.00    +0.104 C 
ATOM     18  C   UNL     1      -1.590  -1.783  23.904  0.00  0.00    +0.074 C 
ATOM     19  I   UNL     1      -3.663  -1.345  23.928  0.00  0.00    -0.073 I 
ATOM     20  C   UNL     1      -0.728  -0.628  24.338  0.00  0.00    +0.034 C 
ATOM     21  C   UNL     1       0.557  -1.381  24.664  0.00  0.00    +0.095 C 
ATOM     22  C   UNL     1       0.825  -3.013  26.525  0.00  0.00    +0.250 C 
ATOM     23  O   UNL     1       1.988  -2.487  26.691  0.00  0.00    -0.270 OA
ENDBRANCH  14  22
ENDBRANCH   1  15
TORSDOF 2
