REMARK  Name = =
REMARK  4 active torsions:
REMARK  status: ('A' for Active; 'I' for Inactive)
REMARK    1  A    between atoms: C_1  and  C_20
REMARK    2  A    between atoms: C_2  and  N_3
REMARK    3  A    between atoms: C_15  and  N_22
REMARK    4  A    between atoms: N_22  and  N_23
REMARK                            x       y       z     vdW  Elec       q    Type
REMARK                         _______ _______ _______ _____ _____    ______ ____
ROOT
ATOM      1  C   UNL     1      -1.344  -4.614  28.979  0.00  0.00    +0.074 C 
ATOM      2  C   UNL     1      -0.534  -4.029  28.132  0.00  0.00    +0.076 C 
ENDROOT
BRANCH   2   3
ATOM      3  N   UNL     1       0.648  -4.659  27.657  0.00  0.00    -0.241 N 
ATOM      4  C   UNL     1       0.942  -5.958  27.823  0.00  0.00    +0.174 C 
ATOM      5  N   UNL     1       2.133  -6.153  27.236  0.00  0.00    -0.209 NA
ATOM      6  C   UNL     1       2.599  -5.023  26.707  0.00  0.00    +0.164 A 
ATOM      7  C   UNL     1       1.629  -4.052  26.983  0.00  0.00    +0.148 A 
ATOM      8  C   UNL     1       1.797  -2.750  26.569  0.00  0.00    +0.278 A 
ATOM      9  O   UNL     1       0.952  -1.835  26.794  0.00  0.00    -0.266 OA
ATOM     10  N   UNL     1       2.916  -2.420  25.890  0.00  0.00    -0.273 N 
ATOM     11  C   UNL     1       3.826  -3.355  25.636  0.00  0.00    +0.328 A 
ATOM     12  O   UNL     1       4.861  -3.043  25.006  0.00  0.00    -0.247 OA
ATOM     13  N   UNL     1       3.692  -4.635  26.026  0.00  0.00    -0.291 N 
ATOM     14  H   UNL     1       3.057  -1.494  25.585  0.00  0.00    +0.173 HD
ATOM     15  H   UNL     1       4.396  -5.290  25.813  0.00  0.00    +0.172 HD
ENDBRANCH   2   3
BRANCH   1  22
ATOM     16  N   UNL     1      -3.303  -4.445  30.529  0.00  0.00    -0.260 N 
ATOM     17  C   UNL     1      -3.007  -5.630  31.284  0.00  0.00    +0.174 C 
ATOM     18  C   UNL     1      -3.353  -5.168  32.706  0.00  0.00    +0.093 C 
ATOM     19  I   UNL     1      -3.584  -6.827  34.007  0.00  0.00    -0.072 I 
ATOM     20  C   UNL     1      -4.676  -4.472  32.456  0.00  0.00    +0.035 C 
ATOM     21  C   UNL     1      -4.500  -3.872  31.074  0.00  0.00    +0.096 C 
ATOM     22  C   UNL     1      -2.542  -3.946  29.445  0.00  0.00    +0.252 C 
ATOM     23  O   UNL     1      -2.897  -2.878  28.841  0.00  0.00    -0.270 OA
BRANCH  17  24
ATOM     24  N   UNL     1      -3.919  -6.711  30.941  0.00  0.00    -0.240 N 
ATOM     25  H   UNL     1      -4.840  -6.510  30.657  0.00  0.00    +0.171 HD
BRANCH  24  26
ATOM     26  N   UNL     1      -3.488  -8.017  31.016  0.00  0.00    -0.181 NA
ATOM     27  C   UNL     1      -2.533  -8.517  30.314  0.00  0.00    +0.139 C 
ENDBRANCH  24  26
ENDBRANCH  17  24
ENDBRANCH   1  22
TORSDOF 4
