REMARK  Name = =
REMARK  0 active torsions:
REMARK  status: ('A' for Active; 'I' for Inactive)
REMARK                            x       y       z     vdW  Elec       q    Type
REMARK                         _______ _______ _______ _____ _____    ______ ____
ROOT
ATOM      1  C   UNL     1      52.241 155.698  28.440  0.00  0.00    +0.296 C 
ATOM      2  O   UNL     1      52.812 156.587  29.138  0.00  0.00    -0.265 OA
ATOM      3  N   UNL     1      52.742 155.324  27.166  0.00  0.00    -0.322 N 
ATOM      4  H   UNL     1      52.282 154.630  26.640  0.00  0.00    +0.145 HD
ATOM      5  H   UNL     1      53.550 155.758  26.808  0.00  0.00    +0.145 HD
ENDROOT
TORSDOF 0
