REMARK  Name = =
REMARK  2 active torsions:
REMARK  status: ('A' for Active; 'I' for Inactive)
REMARK    1  A    between atoms: S_1  and  C_2
REMARK    2  A    between atoms: S_1  and  N_7
REMARK                            x       y       z     vdW  Elec       q    Type
REMARK                         _______ _______ _______ _____ _____    ______ ____
ROOT
ATOM      1  S   UNL     1      53.293 155.881  26.120  0.00  0.00    +0.037 S 
ENDROOT
BRANCH   1   2
ATOM      2  C   UNL     1      53.582 154.407  25.176  0.00  0.00    +0.288 C 
ATOM      3  O   UNL     1      52.829 153.428  25.325  0.00  0.00    -0.262 OA
ATOM      4  N   UNL     1      54.687 154.415  24.271  0.00  0.00    -0.319 N 
ATOM      5  H   UNL     1      54.884 153.618  23.727  0.00  0.00    +0.146 HD
ATOM      6  H   UNL     1      55.252 155.217  24.191  0.00  0.00    +0.146 HD
ENDBRANCH   1   2
BRANCH   1   9
ATOM      7  C   UNL     1      52.397 156.371  28.655  0.00  0.00    +0.310 C 
ATOM      8  O   UNL     1      53.104 157.422  28.587  0.00  0.00    -0.264 OA
ATOM      9  N   UNL     1      52.354 155.482  27.551  0.00  0.00    -0.244 N 
ATOM     10  H   UNL     1      51.811 154.661  27.585  0.00  0.00    +0.164 HD
ENDBRANCH   1   9
TORSDOF 2
