MODEL 1
REMARK VINA RESULT:    -6.746      0.000      0.000
REMARK INTER + INTRA:         -10.053
REMARK INTER:                  -8.915
REMARK INTRA:                  -1.138
REMARK UNBOUND:                -1.138
REMARK  Name = =
REMARK  6 active torsions:
REMARK  status: ('A' for Active; 'I' for Inactive)
REMARK    1  A    between atoms: C_1  and  N_15
REMARK    2  A    between atoms: C_1  and  S_21
REMARK    3  A    between atoms: S_21  and  N_22
REMARK    4  A    between atoms: S_21  and  C_34
REMARK    5  A    between atoms: N_25  and  C_28
REMARK    6  A    between atoms: C_34  and  N_36
REMARK                            x       y       z     vdW  Elec       q    Type
REMARK                         _______ _______ _______ _____ _____    ______ ____
ROOT
ATOM      1  C   UNL     1      60.222 162.490  39.543  0.00  0.00    +0.252 C 
ATOM      2  O   UNL     1      60.033 163.887  39.619  0.00  0.00    -0.311 OA
ATOM      3  C   UNL     1      59.555 164.309  38.387  0.00  0.00    +0.215 C 
ATOM      4  N   UNL     1      59.931 163.343  37.413  0.00  0.00    -0.244 N 
ATOM      5  C   UNL     1      59.594 163.571  36.016  0.00  0.00    +0.181 C 
ATOM      6  C   UNL     1      60.078 164.955  35.665  0.00  0.00    +0.246 C 
ATOM      7  O   UNL     1      60.217 165.210  34.444  0.00  0.00    -0.273 OA
ATOM      8  N   UNL     1      60.357 165.898  36.686  0.00  0.00    -0.276 N 
ATOM      9  C   UNL     1      60.046 165.656  38.065  0.00  0.00    +0.122 C 
ATOM     10  C   UNL     1      61.347 166.060  38.724  0.00  0.00    +0.026 C 
ATOM     11  C   UNL     1      61.697 167.336  37.939  0.00  0.00    +0.023 C 
ATOM     12  C   UNL     1      60.956 167.204  36.626  0.00  0.00    +0.094 C 
ATOM     13  C   UNL     1      60.589 162.311  38.122  0.00  0.00    +0.277 C 
ATOM     14  O   UNL     1      61.321 161.435  37.652  0.00  0.00    -0.270 OA
ENDROOT
BRANCH   1  15
ATOM     15  N   UNL     1      61.404 162.204  40.327  0.00  0.00    -0.236 NA
ATOM     16  C   UNL     1      61.281 162.550  41.719  0.00  0.00    +0.092 C 
ATOM     17  C   UNL     1      62.638 162.461  42.357  0.00  0.00    +0.086 C 
ATOM     18  N   UNL     1      63.504 161.491  41.714  0.00  0.00    -0.295 NA
ATOM     19  C   UNL     1      63.748 161.828  40.325  0.00  0.00    +0.086 C 
ATOM     20  C   UNL     1      62.620 162.730  39.808  0.00  0.00    +0.092 C 
ATOM     21  H   UNL     1      63.061 160.573  41.759  0.00  0.00    +0.123 HD
ENDBRANCH   1  15
BRANCH   1  22
ATOM     22  S   UNL     1      58.958 161.601  39.997  0.00  0.00    -0.098 S 
ATOM     23  H   UNL     1      58.054 162.230  39.202  0.00  0.00    +0.108 HD
BRANCH  22  24
ATOM     24  N   UNL     1      58.005 161.788  41.063  0.00  0.00    -0.235 NA
ATOM     25  C   UNL     1      57.586 160.648  41.872  0.00  0.00    +0.104 C 
ATOM     26  C   UNL     1      56.187 160.269  41.434  0.00  0.00    +0.109 C 
ATOM     27  N   UNL     1      55.312 161.344  41.854  0.00  0.00    -0.305 N 
ATOM     28  C   UNL     1      55.939 162.626  42.095  0.00  0.00    +0.109 C 
ATOM     29  C   UNL     1      57.100 162.888  41.166  0.00  0.00    +0.104 C 
BRANCH  27  30
ATOM     30  C   UNL     1      53.939 161.099  41.997  0.00  0.00    +0.048 C 
ATOM     31  C   UNL     1      53.028 162.099  41.776  0.00  0.00    +0.015 C 
ATOM     32  C   UNL     1      51.656 161.888  41.908  0.00  0.00    +0.001 C 
ATOM     33  C   UNL     1      51.186 160.644  42.270  0.00  0.00    +0.000 C 
ATOM     34  C   UNL     1      52.074 159.636  42.494  0.00  0.00    +0.001 C 
ATOM     35  C   UNL     1      53.447 159.864  42.357  0.00  0.00    +0.015 C 
ENDBRANCH  27  30
ENDBRANCH  22  24
BRANCH  22  36
ATOM     36  C   UNL     1      59.442 159.894  39.801  0.00  0.00    +0.101 C 
ATOM     37  S   UNL     1      58.815 158.962  38.647  0.00  0.00    -0.029 S 
BRANCH  36  38
ATOM     38  N   UNL     1      60.414 159.384  40.708  0.00  0.00    -0.347 N 
ATOM     39  H   UNL     1      61.369 159.581  40.569  0.00  0.00    +0.143 HD
ATOM     40  H   UNL     1      60.130 158.834  41.474  0.00  0.00    +0.143 HD
ENDBRANCH  36  38
ENDBRANCH  22  36
ENDBRANCH   1  22
TORSDOF 6
ENDMDL
