REMARK  Name = =
REMARK  7 active torsions:
REMARK  status: ('A' for Active; 'I' for Inactive)
REMARK    1  A    between atoms: C_1  and  C_15
REMARK    2  A    between atoms: C_1  and  C_27
REMARK    3  A    between atoms: C_2  and  C_21
REMARK    4  A    between atoms: C_9  and  S_42
REMARK    5  A    between atoms: C_27  and  N_36
REMARK    6  A    between atoms: C_29  and  S_30
REMARK    7  A    between atoms: S_42  and  S_43
REMARK                            x       y       z     vdW  Elec       q    Type
REMARK                         _______ _______ _______ _____ _____    ______ ____
ROOT
ATOM      1  C   UNL     1     -23.640 -41.296  22.440  0.00  0.00    +0.032 C 
ATOM      2  C   UNL     1     -22.705 -40.340  23.057  0.00  0.00    +0.027 C 
ATOM      3  C   UNL     1     -22.367 -39.062  22.339  0.00  0.00    +0.005 C 
ATOM      4  C   UNL     1     -21.113 -39.127  21.475  0.00  0.00    +0.000 C 
ATOM      5  C   UNL     1     -20.808 -37.655  21.119  0.00  0.00    +0.000 C 
ATOM      6  C   UNL     1     -21.747 -37.340  19.975  0.00  0.00    +0.000 C 
ATOM      7  C   UNL     1     -21.418 -36.106  19.212  0.00  0.00    +0.003 C 
ATOM      8  C   UNL     1     -22.695 -35.536  18.586  0.00  0.00    +0.042 C 
ATOM      9  C   UNL     1     -23.667 -36.598  18.195  0.00  0.00    +0.172 C 
ATOM     10  O   UNL     1     -24.695 -36.775  19.127  0.00  0.00    -0.345 OA
ATOM     11  C   UNL     1     -25.265 -38.032  18.972  0.00  0.00    +0.143 C 
ATOM     12  C   UNL     1     -25.446 -38.749  20.262  0.00  0.00    +0.032 C 
ATOM     13  C   UNL     1     -24.473 -39.967  20.314  0.00  0.00    +0.003 C 
ATOM     14  C   UNL     1     -24.638 -40.576  21.602  0.00  0.00    +0.005 C 
ENDROOT
BRANCH   1  15
ATOM     15  C   UNL     1     -22.770 -42.254  21.713  0.00  0.00    -0.048 C 
ATOM     16  C   UNL     1     -23.049 -42.868  20.581  0.00  0.00    -0.035 C 
ATOM     17  C   UNL     1     -22.044 -43.783  20.008  0.00  0.00    +0.025 C 
ATOM     18  C   UNL     1     -20.780 -42.909  19.872  0.00  0.00    +0.005 C 
ATOM     19  C   UNL     1     -20.341 -42.380  21.189  0.00  0.00    +0.005 C 
ATOM     20  C   UNL     1     -21.406 -42.650  22.249  0.00  0.00    +0.022 C 
ENDBRANCH   1  15
BRANCH   2  21
ATOM     21  C   UNL     1     -22.805 -39.966  24.481  0.00  0.00    -0.022 C 
ATOM     22  C   UNL     1     -23.510 -38.842  24.849  0.00  0.00    -0.004 C 
ATOM     23  C   UNL     1     -23.576 -38.409  26.169  0.00  0.00    -0.000 C 
ATOM     24  C   UNL     1     -22.935 -39.095  27.167  0.00  0.00    -0.000 C 
ATOM     25  C   UNL     1     -22.233 -40.210  26.838  0.00  0.00    -0.000 C 
ATOM     26  C   UNL     1     -22.186 -40.612  25.527  0.00  0.00    -0.004 C 
ENDBRANCH   2  21
BRANCH   1  27
ATOM     27  C   UNL     1     -24.572 -42.099  23.344  0.00  0.00    +0.057 C 
ATOM     28  C   UNL     1     -25.495 -43.089  22.692  0.00  0.00    +0.026 C 
ATOM     29  C   UNL     1     -24.448 -43.442  23.802  0.00  0.00    +0.044 C 
BRANCH  29  30
ATOM     30  S   UNL     1     -23.883 -44.984  23.425  0.00  0.00    -0.224 S 
ATOM     31  C   UNL     1     -22.439 -45.599  24.315  0.00  0.00    +0.054 C 
ATOM     32  C   UNL     1     -22.153 -47.011  23.861  0.00  0.00    +0.079 C 
ATOM     33  N   UNL     1     -23.211 -47.856  24.438  0.00  0.00    -0.296 NA
ATOM     34  C   UNL     1     -24.382 -47.651  23.648  0.00  0.00    +0.079 C 
ATOM     35  C   UNL     1     -25.079 -46.410  24.055  0.00  0.00    +0.054 C 
ATOM     36  H   UNL     1     -23.698 -44.789  22.092  0.00  0.00    +0.084 HD
ATOM     37  H   UNL     1     -23.388 -47.585  25.405  0.00  0.00    +0.123 HD
ENDBRANCH  29  30
BRANCH  27  38
ATOM     38  N   UNL     1     -25.486 -41.221  24.152  0.00  0.00    -0.272 NA
ATOM     39  C   UNL     1     -25.661 -41.765  25.514  0.00  0.00    +0.089 C 
ATOM     40  C   UNL     1     -26.483 -40.762  26.293  0.00  0.00    +0.086 C 
ATOM     41  N   UNL     1     -26.966 -39.648  25.552  0.00  0.00    -0.295 NA
ATOM     42  C   UNL     1     -27.452 -39.903  24.238  0.00  0.00    +0.086 C 
ATOM     43  C   UNL     1     -26.852 -41.220  23.697  0.00  0.00    +0.089 C 
ATOM     44  H   UNL     1     -26.201 -38.978  25.472  0.00  0.00    +0.123 HD
ENDBRANCH  27  38
ENDBRANCH   1  27
BRANCH   9  45
ATOM     45  S   UNL     1     -24.399 -36.168  16.574  0.00  0.00    -0.057 S 
BRANCH  45  46
ATOM     46  S   UNL     1     -25.609 -34.447  16.718  0.00  0.00    -0.108 S 
ATOM     47  H   UNL     1     -26.134 -34.159  15.497  0.00  0.00    +0.114 HD
ENDBRANCH  45  46
ENDBRANCH   9  45
TORSDOF 7
