REMARK  Name = =
REMARK  9 active torsions:
REMARK  status: ('A' for Active; 'I' for Inactive)
REMARK    1  A    between atoms: P_1  and  O_3
REMARK    2  A    between atoms: P_1  and  O_4
REMARK    3  A    between atoms: P_1  and  O_9
REMARK    4  A    between atoms: O_4  and  P_5
REMARK    5  A    between atoms: P_5  and  O_7
REMARK    6  A    between atoms: P_5  and  O_8
REMARK    7  A    between atoms: O_9  and  P_10
REMARK    8  A    between atoms: P_10  and  O_12
REMARK    9  A    between atoms: P_10  and  O_13
REMARK                            x       y       z     vdW  Elec       q    Type
REMARK                         _______ _______ _______ _____ _____    ______ ____
ROOT
ATOM      1  P   UNL     1      -4.310  -3.131  30.879  0.00  0.00    +0.492 P 
ATOM      2  O   UNL     1      -4.029  -1.676  30.594  0.00  0.00    -0.226 OA
ENDROOT
BRANCH   1   3
ATOM      3  O   UNL     1      -3.810  -4.022  29.519  0.00  0.00    -0.302 OA
ATOM      4  H   UNL     1      -3.978  -4.965  29.671  0.00  0.00    +0.222 HD
ENDBRANCH   1   3
BRANCH   1   5
ATOM      5  O   UNL     1      -3.272  -3.583  32.155  0.00  0.00    -0.186 OA
BRANCH   5   6
ATOM      6  P   UNL     1      -3.661  -5.205  32.519  0.00  0.00    +0.481 P 
ATOM      7  O   UNL     1      -4.676  -5.178  33.619  0.00  0.00    -0.227 OA
BRANCH   6   8
ATOM      8  O   UNL     1      -4.417  -5.893  31.157  0.00  0.00    -0.302 OA
ATOM      9  H   UNL     1      -3.787  -5.927  30.420  0.00  0.00    +0.222 HD
ENDBRANCH   6   8
BRANCH   6  10
ATOM     10  O   UNL     1      -2.301  -6.109  32.879  0.00  0.00    -0.302 OA
ATOM     11  H   UNL     1      -1.857  -5.731  33.654  0.00  0.00    +0.222 HD
ENDBRANCH   6  10
ENDBRANCH   5   6
ENDBRANCH   1   5
BRANCH   1  12
ATOM     12  O   UNL     1      -5.913  -3.436  31.233  0.00  0.00    -0.186 OA
BRANCH  12  13
ATOM     13  P   UNL     1      -6.636  -2.242  32.164  0.00  0.00    +0.481 P 
ATOM     14  O   UNL     1      -6.051  -2.136  33.544  0.00  0.00    -0.227 OA
BRANCH  13  15
ATOM     15  O   UNL     1      -8.303  -2.598  32.231  0.00  0.00    -0.302 OA
ATOM     16  H   UNL     1      -8.433  -3.459  32.659  0.00  0.00    +0.222 HD
ENDBRANCH  13  15
BRANCH  13  17
ATOM     17  O   UNL     1      -6.516  -0.722  31.400  0.00  0.00    -0.302 OA
ATOM     18  H   UNL     1      -6.891  -0.778  30.507  0.00  0.00    +0.222 HD
ENDBRANCH  13  17
ENDBRANCH  12  13
ENDBRANCH   1  12
TORSDOF 9
