REMARK  Name = =
REMARK  10 active torsions:
REMARK  status: ('A' for Active; 'I' for Inactive)
REMARK    1  A    between atoms: P_1  and  O_3
REMARK    2  A    between atoms: P_1  and  O_8
REMARK    3  A    between atoms: P_1  and  O_13
REMARK    4  A    between atoms: O_3  and  P_4
REMARK    5  A    between atoms: P_4  and  O_6
REMARK    6  A    between atoms: P_4  and  O_7
REMARK    7  A    between atoms: O_8  and  P_9
REMARK    8  A    between atoms: P_9  and  O_11
REMARK    9  A    between atoms: P_9  and  O_12
REMARK   10  A    between atoms: O_13  and  C_14
REMARK                            x       y       z     vdW  Elec       q    Type
REMARK                         _______ _______ _______ _____ _____    ______ ____
ROOT
ATOM      1  P   UNL     1      -0.465  -6.197  29.858  0.00  0.00    +0.551 P 
ATOM      2  O   UNL     1      -1.984  -6.055  29.920  0.00  0.00    -0.214 OA
ENDROOT
BRANCH   1   3
ATOM      3  O   UNL     1       0.184  -4.882  30.675  0.00  0.00    -0.176 OA
BRANCH   3   4
ATOM      4  P   UNL     1       1.807  -5.046  31.016  0.00  0.00    +0.482 P 
ATOM      5  O   UNL     1       2.169  -4.504  32.393  0.00  0.00    -0.227 OA
BRANCH   4   6
ATOM      6  O   UNL     1       2.713  -4.127  29.897  0.00  0.00    -0.302 OA
ATOM      7  H   UNL     1       2.440  -3.198  29.946  0.00  0.00    +0.222 HD
ENDBRANCH   4   6
BRANCH   4   8
ATOM      8  O   UNL     1       2.342  -6.642  30.867  0.00  0.00    -0.302 OA
ATOM      9  H   UNL     1       1.853  -7.206  31.487  0.00  0.00    +0.222 HD
ENDBRANCH   4   8
ENDBRANCH   3   4
ENDBRANCH   1   3
BRANCH   1  10
ATOM     10  O   UNL     1      -0.090  -7.660  30.617  0.00  0.00    -0.176 OA
BRANCH  10  11
ATOM     11  P   UNL     1      -1.009  -7.894  32.012  0.00  0.00    +0.482 P 
ATOM     12  O   UNL     1      -1.723  -6.634  32.436  0.00  0.00    -0.227 OA
BRANCH  11  13
ATOM     13  O   UNL     1      -2.111  -9.174  31.800  0.00  0.00    -0.302 OA
ATOM     14  H   UNL     1      -2.744  -8.944  31.102  0.00  0.00    +0.222 HD
ENDBRANCH  11  13
BRANCH  11  15
ATOM     15  O   UNL     1       0.056  -8.371  33.241  0.00  0.00    -0.302 OA
ATOM     16  H   UNL     1       0.706  -7.668  33.397  0.00  0.00    +0.222 HD
ENDBRANCH  11  15
ENDBRANCH  10  11
ENDBRANCH   1  10
BRANCH   1  17
ATOM     17  O   UNL     1      -0.031  -6.202  28.220  0.00  0.00    -0.388 OA
BRANCH  17  18
ATOM     18  C   UNL     1       1.248  -6.421  27.743  0.00  0.00    +0.204 C 
ATOM     19  C   UNL     1       1.960  -5.516  26.974  0.00  0.00    +0.051 C 
ATOM     20  C   UNL     1       1.668  -4.248  26.488  0.00  0.00    +0.004 C 
ATOM     21  C   UNL     1       2.587  -3.554  25.728  0.00  0.00    +0.000 C 
ATOM     22  C   UNL     1       3.809  -4.083  25.428  0.00  0.00    +0.000 C 
ATOM     23  C   UNL     1       4.125  -5.334  25.896  0.00  0.00    +0.001 C 
ATOM     24  C   UNL     1       3.203  -6.018  26.652  0.00  0.00    +0.019 C 
ATOM     25  C   UNL     1       3.223  -7.279  27.261  0.00  0.00    +0.064 C 
ATOM     26  N   UNL     1       2.067  -7.478  27.886  0.00  0.00    -0.283 N 
ATOM     27  H   UNL     1       1.840  -8.294  28.389  0.00  0.00    +0.155 HD
ENDBRANCH  17  18
ENDBRANCH   1  17
TORSDOF 10
