REMARK  Name = =
REMARK  0 active torsions:
REMARK  status: ('A' for Active; 'I' for Inactive)
REMARK                            x       y       z     vdW  Elec       q    Type
REMARK                         _______ _______ _______ _____ _____    ______ ____
ROOT
ATOM      1  C   UNL     1      -4.716  -4.231  30.572  0.00  0.00    +0.022 C 
ATOM      2  C   UNL     1      -5.358  -3.010  31.138  0.00  0.00    +0.004 C 
ATOM      3  C   UNL     1      -5.902  -3.332  32.511  0.00  0.00    +0.000 C 
ATOM      4  C   UNL     1      -6.595  -2.161  33.101  0.00  0.00    +0.000 C 
ATOM      5  C   UNL     1      -6.389  -0.861  32.464  0.00  0.00    +0.000 C 
ATOM      6  C   UNL     1      -5.159  -0.646  31.675  0.00  0.00    +0.000 C 
ATOM      7  C   UNL     1      -4.390  -1.873  31.300  0.00  0.00    +0.001 C 
ATOM      8  C   UNL     1      -3.639  -1.710  29.994  0.00  0.00    +0.004 C 
ATOM      9  C   UNL     1      -2.681  -2.882  29.836  0.00  0.00    +0.022 C 
ATOM     10  C   UNL     1      -3.246  -4.115  30.437  0.00  0.00    -0.044 C 
ATOM     11  C   UNL     1      -2.464  -5.087  30.845  0.00  0.00    -0.009 C 
ENDROOT
TORSDOF 0
