REMARK  Name = =
REMARK  1 active torsions:
REMARK  status: ('A' for Active; 'I' for Inactive)
REMARK    1  A    between atoms: C_8  and  C_12
REMARK                            x       y       z     vdW  Elec       q    Type
REMARK                         _______ _______ _______ _____ _____    ______ ____
ROOT
ATOM      1  C   UNL     1      -2.541  -5.110  29.723  0.00  0.00    +0.022 C 
ATOM      2  C   UNL     1      -2.518  -4.898  31.215  0.00  0.00    +0.004 C 
ATOM      3  C   UNL     1      -2.106  -6.096  31.991  0.00  0.00    +0.000 C 
ATOM      4  C   UNL     1      -3.252  -6.929  32.499  0.00  0.00    +0.000 C 
ATOM      5  C   UNL     1      -4.202  -6.015  33.237  0.00  0.00    +0.000 C 
ATOM      6  C   UNL     1      -4.797  -5.074  32.194  0.00  0.00    +0.000 C 
ATOM      7  C   UNL     1      -3.688  -4.161  31.747  0.00  0.00    +0.006 C 
ATOM      8  C   UNL     1      -4.155  -3.159  30.714  0.00  0.00    +0.044 C 
ATOM      9  C   UNL     1      -2.892  -2.633  30.021  0.00  0.00    +0.028 C 
ATOM     10  C   UNL     1      -2.467  -3.754  29.104  0.00  0.00    -0.044 C 
ATOM     11  C   UNL     1      -2.073  -3.532  27.882  0.00  0.00    -0.009 C 
ENDROOT
BRANCH   8  12
ATOM     12  C   UNL     1      -4.958  -2.075  31.290  0.00  0.00    +0.062 C 
ATOM     13  N   UNL     1      -6.058  -2.311  32.045  0.00  0.00    -0.228 NA
ATOM     14  C   UNL     1      -6.781  -1.309  32.564  0.00  0.00    +0.199 C 
ATOM     15  N   UNL     1      -6.410  -0.049  32.334  0.00  0.00    -0.222 NA
ATOM     16  C   UNL     1      -5.330   0.281  31.595  0.00  0.00    +0.102 C 
ATOM     17  C   UNL     1      -4.599  -0.760  31.069  0.00  0.00    +0.035 C 
ENDBRANCH   8  12
TORSDOF 1
