REMARK  Name = =
REMARK  2 active torsions:
REMARK  status: ('A' for Active; 'I' for Inactive)
REMARK    1  A    between atoms: C_1  and  C_18
REMARK    2  A    between atoms: C_8  and  C_12
REMARK                            x       y       z     vdW  Elec       q    Type
REMARK                         _______ _______ _______ _____ _____    ______ ____
ROOT
ATOM      1  C   UNL     1      -1.594  -8.009  31.139  0.00  0.00    +0.056 C 
ATOM      2  C   UNL     1      -1.344  -7.838  29.667  0.00  0.00    +0.009 C 
ATOM      3  C   UNL     1      -0.404  -8.846  29.094  0.00  0.00    +0.001 C 
ATOM      4  C   UNL     1      -0.438  -8.670  27.571  0.00  0.00    +0.000 C 
ATOM      5  C   UNL     1       0.166  -7.297  27.308  0.00  0.00    +0.000 C 
ATOM      6  C   UNL     1      -0.645  -6.203  27.920  0.00  0.00    +0.000 C 
ATOM      7  C   UNL     1      -0.995  -6.422  29.357  0.00  0.00    +0.007 C 
ATOM      8  C   UNL     1      -2.204  -5.535  29.663  0.00  0.00    +0.044 C 
ATOM      9  C   UNL     1      -2.640  -5.698  31.101  0.00  0.00    +0.028 C 
ATOM     10  C   UNL     1      -2.754  -7.129  31.492  0.00  0.00    -0.039 C 
ATOM     11  C   UNL     1      -3.814  -7.606  32.117  0.00  0.00    -0.009 C 
ENDROOT
BRANCH   8  12
ATOM     12  C   UNL     1      -1.879  -4.110  29.456  0.00  0.00    +0.062 C 
ATOM     13  N   UNL     1      -0.615  -3.655  29.422  0.00  0.00    -0.228 NA
ATOM     14  C   UNL     1      -0.336  -2.348  29.231  0.00  0.00    +0.199 C 
ATOM     15  N   UNL     1      -1.307  -1.442  29.067  0.00  0.00    -0.222 NA
ATOM     16  C   UNL     1      -2.586  -1.827  29.091  0.00  0.00    +0.102 C 
ATOM     17  C   UNL     1      -2.880  -3.182  29.288  0.00  0.00    +0.035 C 
ENDBRANCH   8  12
BRANCH   1  18
ATOM     18  C   UNL     1      -0.419  -7.625  31.963  0.00  0.00    +0.068 C 
ATOM     19  C   UNL     1      -0.270  -7.781  33.267  0.00  0.00    +0.092 C 
ATOM     20  C   UNL     1       1.065  -7.246  33.628  0.00  0.00    +0.102 C 
ATOM     21  N   UNL     1       1.589  -6.798  32.370  0.00  0.00    -0.151 NA
ATOM     22  N   UNL     1       0.757  -7.013  31.455  0.00  0.00    -0.156 NA
ENDBRANCH   1  18
TORSDOF 2
