REMARK  Name = =
REMARK  4 active torsions:
REMARK  status: ('A' for Active; 'I' for Inactive)
REMARK    1  A    between atoms: C_1  and  C_18
REMARK    2  A    between atoms: C_8  and  C_12
REMARK    3  A    between atoms: C_19  and  C_23
REMARK    4  A    between atoms: C_23  and  C_24
REMARK                            x       y       z     vdW  Elec       q    Type
REMARK                         _______ _______ _______ _____ _____    ______ ____
ROOT
ATOM      1  C   UNL     1       0.649  -6.963  29.163  0.00  0.00    +0.058 C 
ATOM      2  C   UNL     1      -0.407  -5.882  29.106  0.00  0.00    +0.010 C 
ATOM      3  C   UNL     1      -0.089  -4.869  28.022  0.00  0.00    +0.001 C 
ATOM      4  C   UNL     1      -1.385  -4.110  27.786  0.00  0.00    +0.000 C 
ATOM      5  C   UNL     1      -1.723  -3.355  29.037  0.00  0.00    +0.000 C 
ATOM      6  C   UNL     1      -1.717  -4.187  30.279  0.00  0.00    +0.000 C 
ATOM      7  C   UNL     1      -0.587  -5.150  30.383  0.00  0.00    +0.007 C 
ATOM      8  C   UNL     1      -0.747  -5.994  31.607  0.00  0.00    +0.044 C 
ATOM      9  C   UNL     1       0.151  -7.197  31.632  0.00  0.00    +0.028 C 
ATOM     10  C   UNL     1       0.254  -7.847  30.298  0.00  0.00    -0.039 C 
ATOM     11  C   UNL     1       0.003  -9.143  30.158  0.00  0.00    -0.009 C 
ENDROOT
BRANCH   8  12
ATOM     12  C   UNL     1      -2.178  -6.346  31.855  0.00  0.00    +0.062 C 
ATOM     13  N   UNL     1      -2.698  -7.403  31.232  0.00  0.00    -0.228 NA
ATOM     14  C   UNL     1      -3.961  -7.751  31.423  0.00  0.00    +0.199 C 
ATOM     15  N   UNL     1      -4.742  -7.042  32.250  0.00  0.00    -0.222 NA
ATOM     16  C   UNL     1      -4.285  -5.972  32.905  0.00  0.00    +0.102 C 
ATOM     17  C   UNL     1      -2.976  -5.607  32.711  0.00  0.00    +0.035 C 
ENDBRANCH   8  12
BRANCH   1  18
ATOM     18  C   UNL     1       0.585  -7.702  27.863  0.00  0.00    +0.070 C 
ATOM     19  C   UNL     1       1.620  -8.107  27.117  0.00  0.00    +0.019 C 
ATOM     20  C   UNL     1       1.074  -8.807  25.926  0.00  0.00    +0.117 C 
ATOM     21  N   UNL     1      -0.341  -8.731  26.109  0.00  0.00    -0.158 NA
ATOM     22  N   UNL     1      -0.575  -8.128  27.165  0.00  0.00    -0.121 NA
BRANCH  19  23
ATOM     23  C   UNL     1       3.045  -7.922  27.402  0.00  0.00    +0.093 C 
BRANCH  23  24
ATOM     24  C   UNL     1       3.752  -6.962  26.531  0.00  0.00    +0.156 C 
ATOM     25  O   UNL     1       4.973  -6.894  26.670  0.00  0.00    -0.296 OA
ATOM     26  C   UNL     1       3.133  -6.088  25.524  0.00  0.00    +0.073 C 
ENDBRANCH  23  24
ENDBRANCH  19  23
ENDBRANCH   1  18
TORSDOF 4
