REMARK  Name = =
REMARK  5 active torsions:
REMARK  status: ('A' for Active; 'I' for Inactive)
REMARK    1  A    between atoms: C_1  and  N_12
REMARK    2  A    between atoms: C_1  and  C_24
REMARK    3  A    between atoms: C_8  and  C_18
REMARK    4  A    between atoms: C_25  and  C_29
REMARK    5  A    between atoms: C_29  and  C_30
REMARK                            x       y       z     vdW  Elec       q    Type
REMARK                         _______ _______ _______ _____ _____    ______ ____
ROOT
ATOM      1  C   UNL     1      -0.419  -5.889  29.751  0.00  0.00    +0.124 C 
ATOM      2  C   UNL     1      -0.422  -6.859  28.619  0.00  0.00    +0.027 C 
ATOM      3  C   UNL     1      -1.429  -7.949  28.680  0.00  0.00    +0.002 C 
ATOM      4  C   UNL     1      -0.659  -9.225  29.054  0.00  0.00    +0.000 C 
ATOM      5  C   UNL     1       0.079  -9.642  27.799  0.00  0.00    +0.000 C 
ATOM      6  C   UNL     1       0.984  -8.497  27.393  0.00  0.00    +0.000 C 
ATOM      7  C   UNL     1       0.987  -7.382  28.381  0.00  0.00    +0.008 C 
ATOM      8  C   UNL     1       1.739  -6.206  27.795  0.00  0.00    +0.045 C 
ATOM      9  C   UNL     1       1.971  -5.209  28.870  0.00  0.00    +0.030 C 
ATOM     10  C   UNL     1       0.810  -5.053  29.780  0.00  0.00    -0.021 C 
ATOM     11  C   UNL     1       0.886  -4.075  30.666  0.00  0.00    -0.007 C 
ENDROOT
BRANCH   1  12
ATOM     12  N   UNL     1      -1.479  -4.896  29.437  0.00  0.00    -0.232 N 
ATOM     13  N   UNL     1      -2.584  -4.708  30.121  0.00  0.00    -0.229 N 
ATOM     14  C   UNL     1      -3.280  -3.720  29.516  0.00  0.00    +0.263 C 
ATOM     15  O   UNL     1      -4.392  -3.271  29.894  0.00  0.00    -0.269 OA
ATOM     16  C   UNL     1      -2.580  -3.278  28.413  0.00  0.00    +0.077 C 
ATOM     17  C   UNL     1      -1.439  -4.049  28.394  0.00  0.00    +0.085 C 
ATOM     18  H   UNL     1      -2.857  -5.199  30.930  0.00  0.00    +0.173 HD
ENDBRANCH   1  12
BRANCH   8  19
ATOM     19  C   UNL     1       2.958  -6.611  27.085  0.00  0.00    +0.062 C 
ATOM     20  N   UNL     1       3.918  -7.350  27.689  0.00  0.00    -0.228 NA
ATOM     21  C   UNL     1       5.038  -7.715  27.023  0.00  0.00    +0.199 C 
ATOM     22  N   UNL     1       5.249  -7.366  25.740  0.00  0.00    -0.222 NA
ATOM     23  C   UNL     1       4.329  -6.628  25.079  0.00  0.00    +0.102 C 
ATOM     24  C   UNL     1       3.195  -6.263  25.771  0.00  0.00    +0.035 C 
ENDBRANCH   8  19
BRANCH   1  25
ATOM     25  C   UNL     1      -0.812  -6.462  31.051  0.00  0.00    +0.085 C 
ATOM     26  C   UNL     1      -0.066  -7.004  31.955  0.00  0.00    +0.090 C 
ATOM     27  C   UNL     1      -0.949  -7.472  33.090  0.00  0.00    +0.101 C 
ATOM     28  N   UNL     1      -2.245  -7.101  32.645  0.00  0.00    -0.151 NA
ATOM     29  N   UNL     1      -2.173  -6.553  31.541  0.00  0.00    -0.155 NA
BRANCH  26  30
ATOM     30  C   UNL     1       1.381  -7.247  32.027  0.00  0.00    +0.076 C 
BRANCH  30  31
ATOM     31  C   UNL     1       1.958  -6.432  33.119  0.00  0.00    +0.152 C 
ATOM     32  O   UNL     1       1.508  -6.524  34.237  0.00  0.00    -0.296 OA
ATOM     33  C   UNL     1       3.084  -5.493  32.885  0.00  0.00    +0.072 C 
ENDBRANCH  30  31
ENDBRANCH  26  30
ENDBRANCH   1  25
TORSDOF 5
