REMARK  Name = =
REMARK  9 active torsions:
REMARK  status: ('A' for Active; 'I' for Inactive)
REMARK    1  A    between atoms: C_1  and  N_12
REMARK    2  A    between atoms: C_1  and  C_29
REMARK    3  A    between atoms: C_8  and  C_23
REMARK    4  A    between atoms: N_13  and  N_18
REMARK    5  A    between atoms: N_18  and  P_19
REMARK    6  A    between atoms: P_19  and  N_21
REMARK    7  A    between atoms: P_19  and  N_22
REMARK    8  A    between atoms: C_30  and  C_34
REMARK    9  A    between atoms: C_34  and  C_35
REMARK                            x       y       z     vdW  Elec       q    Type
REMARK                         _______ _______ _______ _____ _____    ______ ____
ROOT
ATOM      1  C   UNL     1       2.721  -6.444  27.603  0.00  0.00    +0.126 C 
ATOM      2  C   UNL     1       2.073  -7.802  27.477  0.00  0.00    +0.028 C 
ATOM      3  C   UNL     1       2.274  -8.560  26.244  0.00  0.00    +0.002 C 
ATOM      4  C   UNL     1       1.046  -8.635  25.352  0.00  0.00    +0.000 C 
ATOM      5  C   UNL     1      -0.148  -9.138  26.135  0.00  0.00    +0.000 C 
ATOM      6  C   UNL     1      -0.426  -8.182  27.277  0.00  0.00    +0.000 C 
ATOM      7  C   UNL     1       0.779  -8.005  28.100  0.00  0.00    +0.008 C 
ATOM      8  C   UNL     1       0.625  -7.494  29.474  0.00  0.00    +0.045 C 
ATOM      9  C   UNL     1       1.030  -6.008  29.468  0.00  0.00    +0.030 C 
ATOM     10  C   UNL     1       2.439  -6.043  29.014  0.00  0.00    -0.021 C 
ATOM     11  C   UNL     1       3.359  -5.749  29.904  0.00  0.00    -0.007 C 
ENDROOT
BRANCH   1  12
ATOM     12  N   UNL     1       4.164  -6.589  27.546  0.00  0.00    -0.215 N 
ATOM     13  N   UNL     1       5.045  -5.598  27.482  0.00  0.00    -0.136 N 
ATOM     14  C   UNL     1       6.290  -6.140  27.451  0.00  0.00    +0.280 C 
ATOM     15  O   UNL     1       7.404  -5.558  27.390  0.00  0.00    -0.267 OA
ATOM     16  C   UNL     1       6.165  -7.510  27.498  0.00  0.00    +0.078 C 
ATOM     17  C   UNL     1       4.820  -7.756  27.557  0.00  0.00    +0.087 C 
BRANCH  13  18
ATOM     18  N   UNL     1       4.834  -4.212  27.460  0.00  0.00    -0.142 NA
ATOM     19  H   UNL     1       5.255  -3.845  28.314  0.00  0.00    +0.157 HD
BRANCH  18  20
ATOM     20  P   UNL     1       5.419  -3.209  26.157  0.00  0.00    +0.293 P 
ATOM     21  O   UNL     1       6.500  -2.254  26.631  0.00  0.00    -0.268 OA
BRANCH  20  22
ATOM     22  N   UNL     1       4.138  -2.258  25.480  0.00  0.00    -0.256 NA
ATOM     23  H   UNL     1       3.744  -1.655  26.202  0.00  0.00    +0.128 HD
ATOM     24  H   UNL     1       3.411  -2.875  25.119  0.00  0.00    +0.128 HD
ENDBRANCH  20  22
BRANCH  20  25
ATOM     25  N   UNL     1       6.088  -4.248  24.890  0.00  0.00    -0.256 NA
ATOM     26  H   UNL     1       6.844  -4.813  25.277  0.00  0.00    +0.128 HD
ATOM     27  H   UNL     1       6.450  -3.670  24.132  0.00  0.00    +0.128 HD
ENDBRANCH  20  25
ENDBRANCH  18  20
ENDBRANCH  13  18
ENDBRANCH   1  12
BRANCH   8  28
ATOM     28  C   UNL     1      -0.682  -7.685  30.105  0.00  0.00    +0.062 C 
ATOM     29  N   UNL     1      -0.969  -8.878  30.653  0.00  0.00    -0.228 NA
ATOM     30  C   UNL     1      -2.114  -9.190  31.268  0.00  0.00    +0.199 C 
ATOM     31  N   UNL     1      -3.052  -8.222  31.340  0.00  0.00    -0.222 NA
ATOM     32  C   UNL     1      -2.827  -7.004  30.813  0.00  0.00    +0.102 C 
ATOM     33  C   UNL     1      -1.644  -6.700  30.183  0.00  0.00    +0.035 C 
ENDBRANCH   8  28
BRANCH   1  34
ATOM     34  C   UNL     1       2.186  -5.486  26.607  0.00  0.00    +0.088 C 
ATOM     35  C   UNL     1       2.367  -5.464  25.316  0.00  0.00    +0.021 C 
ATOM     36  C   UNL     1       1.593  -4.289  24.791  0.00  0.00    +0.117 C 
ATOM     37  N   UNL     1       0.999  -3.739  25.952  0.00  0.00    -0.158 NA
ATOM     38  N   UNL     1       1.334  -4.403  26.932  0.00  0.00    -0.120 NA
BRANCH  35  39
ATOM     39  C   UNL     1       3.118  -6.308  24.376  0.00  0.00    +0.093 C 
BRANCH  39  40
ATOM     40  C   UNL     1       2.371  -6.584  23.114  0.00  0.00    +0.156 C 
ATOM     41  O   UNL     1       1.447  -5.899  22.766  0.00  0.00    -0.296 OA
ATOM     42  C   UNL     1       2.742  -7.727  22.226  0.00  0.00    +0.073 C 
ENDBRANCH  39  40
ENDBRANCH  35  39
ENDBRANCH   1  34
TORSDOF 9
