REMARK  Name = =
REMARK  14 active torsions:
REMARK  status: ('A' for Active; 'I' for Inactive)
REMARK    1  A    between atoms: C_1  and  N_12
REMARK    2  A    between atoms: C_1  and  C_41
REMARK    3  A    between atoms: C_8  and  N_23
REMARK    4  A    between atoms: C_8  and  C_35
REMARK    5  A    between atoms: N_13  and  N_18
REMARK    6  A    between atoms: N_18  and  P_19
REMARK    7  A    between atoms: P_19  and  N_21
REMARK    8  A    between atoms: P_19  and  N_22
REMARK    9  A    between atoms: C_25  and  C_32
REMARK   10  A    between atoms: C_27  and  C_29
REMARK   11  A    between atoms: C_29  and  O_31
REMARK   12  A    between atoms: C_32  and  O_34
REMARK   13  A    between atoms: C_42  and  C_46
REMARK   14  A    between atoms: C_46  and  C_47
REMARK                            x       y       z     vdW  Elec       q    Type
REMARK                         _______ _______ _______ _____ _____    ______ ____
ROOT
ATOM      1  C   UNL     1       2.866  -6.404  26.957  0.00  0.00    +0.126 C 
ATOM      2  C   UNL     1       1.965  -7.528  27.311  0.00  0.00    +0.029 C 
ATOM      3  C   UNL     1       1.832  -8.613  26.274  0.00  0.00    +0.002 C 
ATOM      4  C   UNL     1       1.088  -9.803  26.857  0.00  0.00    +0.000 C 
ATOM      5  C   UNL     1      -0.305  -9.391  27.210  0.00  0.00    +0.000 C 
ATOM      6  C   UNL     1      -0.494  -7.893  27.146  0.00  0.00    +0.002 C 
ATOM      7  C   UNL     1       0.599  -7.145  27.723  0.00  0.00    +0.025 C 
ATOM      8  C   UNL     1       0.466  -6.236  28.847  0.00  0.00    +0.097 C 
ATOM      9  C   UNL     1       1.874  -5.661  29.166  0.00  0.00    +0.048 C 
ATOM     10  C   UNL     1       2.422  -5.288  27.839  0.00  0.00    -0.020 C 
ATOM     11  C   UNL     1       2.502  -4.054  27.480  0.00  0.00    -0.007 C 
ENDROOT
BRANCH   1  12
ATOM     12  N   UNL     1       4.261  -6.565  27.214  0.00  0.00    -0.215 N 
ATOM     13  N   UNL     1       5.270  -5.744  27.380  0.00  0.00    -0.136 N 
ATOM     14  C   UNL     1       6.418  -6.402  27.576  0.00  0.00    +0.280 C 
ATOM     15  O   UNL     1       7.591  -5.918  27.771  0.00  0.00    -0.267 OA
ATOM     16  C   UNL     1       6.123  -7.745  27.532  0.00  0.00    +0.078 C 
ATOM     17  C   UNL     1       4.772  -7.824  27.306  0.00  0.00    +0.087 C 
BRANCH  13  18
ATOM     18  N   UNL     1       5.155  -4.358  27.341  0.00  0.00    -0.142 NA
ATOM     19  H   UNL     1       5.657  -3.998  28.152  0.00  0.00    +0.157 HD
BRANCH  18  20
ATOM     20  P   UNL     1       5.740  -3.467  25.947  0.00  0.00    +0.293 P 
ATOM     21  O   UNL     1       6.794  -4.313  25.267  0.00  0.00    -0.268 OA
BRANCH  20  22
ATOM     22  N   UNL     1       6.439  -1.925  26.389  0.00  0.00    -0.256 NA
ATOM     23  H   UNL     1       7.188  -2.073  27.065  0.00  0.00    +0.128 HD
ATOM     24  H   UNL     1       5.720  -1.332  26.803  0.00  0.00    +0.128 HD
ENDBRANCH  20  22
BRANCH  20  25
ATOM     25  N   UNL     1       4.476  -3.122  24.796  0.00  0.00    -0.256 NA
ATOM     26  H   UNL     1       3.757  -2.551  25.241  0.00  0.00    +0.128 HD
ATOM     27  H   UNL     1       4.063  -3.997  24.472  0.00  0.00    +0.128 HD
ENDBRANCH  20  25
ENDBRANCH  18  20
ENDBRANCH  13  18
ENDBRANCH   1  12
BRANCH   8  28
ATOM     28  N   UNL     1      -0.336  -5.045  28.620  0.00  0.00    -0.300 N 
ATOM     29  C   UNL     1      -1.401  -4.694  29.505  0.00  0.00    +0.124 C 
ATOM     30  C   UNL     1      -2.151  -3.639  29.360  0.00  0.00    +0.073 C 
ATOM     31  C   UNL     1      -1.907  -2.743  28.231  0.00  0.00    +0.012 C 
ATOM     32  C   UNL     1      -0.819  -3.114  27.339  0.00  0.00    +0.090 C 
ATOM     33  C   UNL     1      -0.083  -4.193  27.524  0.00  0.00    +0.068 C 
BRANCH  32  34
ATOM     34  C   UNL     1      -0.547  -2.235  26.197  0.00  0.00    +0.339 C 
ATOM     35  O   UNL     1       0.639  -1.836  25.968  0.00  0.00    -0.245 OA
BRANCH  34  36
ATOM     36  O   UNL     1      -1.537  -1.805  25.334  0.00  0.00    -0.477 OA
ATOM     37  H   UNL     1      -2.424  -2.076  25.467  0.00  0.00    +0.295 HD
ENDBRANCH  34  36
ENDBRANCH  32  34
BRANCH  30  38
ATOM     38  C   UNL     1      -3.239  -3.293  30.277  0.00  0.00    +0.336 C 
ATOM     39  O   UNL     1      -3.076  -2.569  31.286  0.00  0.00    -0.245 OA
BRANCH  38  40
ATOM     40  O   UNL     1      -4.509  -3.782  30.027  0.00  0.00    -0.477 OA
ATOM     41  H   UNL     1      -4.663  -4.326  29.280  0.00  0.00    +0.295 HD
ENDBRANCH  38  40
ENDBRANCH  30  38
ENDBRANCH   8  28
BRANCH   8  42
ATOM     42  C   UNL     1      -0.027  -6.949  30.051  0.00  0.00    +0.079 C 
ATOM     43  N   UNL     1      -1.174  -7.628  29.970  0.00  0.00    -0.227 NA
ATOM     44  C   UNL     1      -1.702  -8.301  30.992  0.00  0.00    +0.199 C 
ATOM     45  N   UNL     1      -1.039  -8.288  32.157  0.00  0.00    -0.222 NA
ATOM     46  C   UNL     1       0.120  -7.626  32.310  0.00  0.00    +0.102 C 
ATOM     47  C   UNL     1       0.650  -6.938  31.246  0.00  0.00    +0.037 C 
ENDBRANCH   8  42
BRANCH   1  48
ATOM     48  C   UNL     1       2.671  -6.012  25.527  0.00  0.00    +0.088 C 
ATOM     49  C   UNL     1       2.988  -6.643  24.426  0.00  0.00    +0.021 C 
ATOM     50  C   UNL     1       2.546  -5.782  23.284  0.00  0.00    +0.117 C 
ATOM     51  N   UNL     1       1.956  -4.660  23.913  0.00  0.00    -0.158 NA
ATOM     52  N   UNL     1       2.024  -4.782  25.136  0.00  0.00    -0.120 NA
BRANCH  49  53
ATOM     53  C   UNL     1       3.650  -7.960  24.225  0.00  0.00    +0.093 C 
BRANCH  53  54
ATOM     54  C   UNL     1       4.901  -7.780  23.418  0.00  0.00    +0.156 C 
ATOM     55  O   UNL     1       5.065  -8.431  22.422  0.00  0.00    -0.296 OA
ATOM     56  C   UNL     1       5.936  -6.807  23.837  0.00  0.00    +0.073 C 
ENDBRANCH  53  54
ENDBRANCH  49  53
ENDBRANCH   1  48
TORSDOF 14
