MODEL 1
REMARK VINA RESULT:   -11.061      0.000      0.000
REMARK INTER + INTRA:         -15.516
REMARK INTER:                 -13.971
REMARK INTRA:                  -1.545
REMARK UNBOUND:                -1.545
REMARK  Name = =
REMARK  5 active torsions:
REMARK  status: ('A' for Active; 'I' for Inactive)
REMARK    1  A    between atoms: C_1  and  C_36
REMARK    2  A    between atoms: C_6  and  C_45
REMARK    3  A    between atoms: C_8  and  N_12
REMARK    4  A    between atoms: C_29  and  C_40
REMARK    5  A    between atoms: C_37  and  N_38
REMARK                            x       y       z     vdW  Elec       q    Type
REMARK                         _______ _______ _______ _____ _____    ______ ____
ROOT
ATOM      1  C   UNL     1       1.539  -8.836  26.827  0.00  0.00    +0.182 C 
ATOM      2  C   UNL     1       2.748  -8.339  27.554  0.00  0.00    +0.225 C 
ATOM      3  O   UNL     1       3.199  -7.087  27.167  0.00  0.00    -0.447 OA
ATOM      4  C   UNL     1       2.571  -5.934  26.876  0.00  0.00    +0.322 C 
ATOM      5  O   UNL     1       2.685  -5.387  25.749  0.00  0.00    -0.250 OA
ATOM      6  C   UNL     1       1.715  -5.251  27.875  0.00  0.00    +0.145 C 
ATOM      7  C   UNL     1       0.277  -5.705  27.822  0.00  0.00    +0.087 C 
ATOM      8  C   UNL     1       0.010  -6.822  28.809  0.00  0.00    +0.276 C 
ATOM      9  O   UNL     1      -0.407  -7.949  28.080  0.00  0.00    -0.429 OA
ATOM     10  C   UNL     1       0.340  -9.019  27.673  0.00  0.00    +0.327 C 
ATOM     11  O   UNL     1       0.018 -10.194  28.012  0.00  0.00    -0.250 OA
ENDROOT
BRANCH   8  12
ATOM     12  N   UNL     1      -1.010  -6.456  29.760  0.00  0.00    -0.215 N 
ATOM     13  N   UNL     1      -1.671  -5.283  29.767  0.00  0.00    -0.166 NA
ATOM     14  C   UNL     1      -2.549  -5.273  30.786  0.00  0.00    +0.103 A 
ATOM     15  C   UNL     1      -3.524  -4.313  31.297  0.00  0.00    +0.022 C 
ATOM     16  C   UNL     1      -4.259  -4.695  32.406  0.00  0.00    +0.040 C 
ATOM     17  C   UNL     1      -4.113  -5.989  33.079  0.00  0.00    +0.196 C 
ATOM     18  O   UNL     1      -4.764  -6.343  34.071  0.00  0.00    -0.287 OA
ATOM     19  C   UNL     1      -3.112  -6.905  32.511  0.00  0.00    +0.042 C 
ATOM     20  C   UNL     1      -2.404  -6.487  31.410  0.00  0.00    +0.040 A 
ATOM     21  C   UNL     1      -1.439  -7.238  30.774  0.00  0.00    +0.083 A 
ATOM     22  C   UNL     1      -1.158  -8.499  31.272  0.00  0.00    +0.019 C 
ATOM     23  C   UNL     1      -1.864  -8.934  32.380  0.00  0.00    +0.002 C 
ATOM     24  C   UNL     1      -2.842  -8.160  33.015  0.00  0.00    +0.003 C 
ATOM     25  C   UNL     1      -5.175  -3.780  32.879  0.00  0.00    +0.003 C 
ATOM     26  C   UNL     1      -5.349  -2.545  32.276  0.00  0.00    +0.000 C 
ATOM     27  C   UNL     1      -4.605  -2.179  31.166  0.00  0.00    +0.000 C 
ATOM     28  C   UNL     1      -3.692  -3.087  30.692  0.00  0.00    +0.002 C 
ENDBRANCH   8  12
BRANCH   1  36
ATOM     29  C   UNL     1       3.914 -14.469  24.918  0.00  0.00    +0.024 C 
ATOM     30  C   UNL     1       2.974 -13.655  24.331  0.00  0.00    +0.078 C 
ATOM     31  C   UNL     1       2.573 -12.455  24.890  0.00  0.00    +0.096 C 
ATOM     32  C   UNL     1       3.167 -12.105  26.085  0.00  0.00    +0.176 C 
ATOM     33  N   UNL     1       4.094 -12.910  26.663  0.00  0.00    -0.224 NA
ATOM     34  C   UNL     1       4.478 -14.076  26.112  0.00  0.00    +0.098 C 
ATOM     35  N   UNL     1       2.792 -10.942  26.645  0.00  0.00    -0.230 NA
ATOM     36  C   UNL     1       1.879 -10.117  26.103  0.00  0.00    +0.089 C 
ATOM     37  C   UNL     1       1.295 -10.470  24.923  0.00  0.00    +0.193 C 
ATOM     38  N   UNL     1       1.657 -11.641  24.335  0.00  0.00    -0.251 NA
BRANCH  29  39
ATOM     39  C   UNL     1       4.316 -15.740  24.298  0.00  0.00    +0.120 C 
ATOM     40  N   UNL     1       5.256 -16.597  24.693  0.00  0.00    -0.204 NA
ATOM     41  C   UNL     1       5.269 -17.617  23.819  0.00  0.00    +0.285 C 
ATOM     42  O   UNL     1       4.354 -17.423  22.878  0.00  0.00    -0.428 OA
ATOM     43  C   UNL     1       3.766 -16.278  23.162  0.00  0.00    +0.200 C 
ENDBRANCH  29  39
BRANCH  37  44
ATOM     44  N   UNL     1       0.330  -9.617  24.334  0.00  0.00    -0.299 NA
ATOM     45  H   UNL     1      -0.312  -9.281  25.052  0.00  0.00    +0.121 HD
ATOM     46  H   UNL     1      -0.192 -10.133  23.626  0.00  0.00    +0.121 HD
ENDBRANCH  37  44
ENDBRANCH   1  36
BRANCH   6  47
ATOM     47  C   UNL     1       2.259  -5.445  29.266  0.00  0.00    +0.073 C 
ATOM     48  N   UNL     1       3.469  -5.152  29.550  0.00  0.00    -0.301 NA
ATOM     49  H   UNL     1       3.806  -5.286  30.466  0.00  0.00    +0.186 HD
ENDBRANCH   6  47
TORSDOF 5
ENDMDL
