REMARK  Name = =
REMARK  1 active torsions:
REMARK  status: ('A' for Active; 'I' for Inactive)
REMARK    1  A    between atoms: C_2  and  C_3
REMARK                            x       y       z     vdW  Elec       q    Type
REMARK                         _______ _______ _______ _____ _____    ______ ____
ROOT
ATOM      1  C   UNL     1      52.712 155.855  28.764  0.00  0.00    +0.000 C 
ATOM      2  C   UNL     1      51.398 155.903  28.666  0.00  0.00    +0.000 C 
ENDROOT
BRANCH   2   3
ATOM      3  C   UNL     1      50.604 156.813  29.475  0.00  0.00    +0.000 C 
ATOM      4  C   UNL     1      49.350 156.581  29.786  0.00  0.00    +0.000 C 
ENDBRANCH   2   3
TORSDOF 1
