REMARK  Name = =
REMARK  2 active torsions:
REMARK  status: ('A' for Active; 'I' for Inactive)
REMARK    1  A    between atoms: N_1  and  C_6
REMARK    2  A    between atoms: C_7  and  C_8
REMARK                            x       y       z     vdW  Elec       q    Type
REMARK                         _______ _______ _______ _____ _____    ______ ____
ROOT
ATOM      1  N   UNL     1      52.602 157.151  28.910  0.00  0.00    -0.148 N 
ATOM      2  N   UNL     1      52.014 158.169  29.510  0.00  0.00    -0.048 NA
ATOM      3  N   UNL     1      52.883 159.149  29.653  0.00  0.00    -0.024 NA
ATOM      4  N   UNL     1      54.054 158.803  29.156  0.00  0.00    -0.107 NA
ATOM      5  C   UNL     1      53.889 157.552  28.688  0.00  0.00    +0.215 C 
ENDROOT
BRANCH   1   6
ATOM      6  C   UNL     1      52.086 155.882  28.540  0.00  0.00    +0.093 C 
ATOM      7  C   UNL     1      50.885 155.437  28.812  0.00  0.00    +0.018 C 
BRANCH   7   8
ATOM      8  C   UNL     1      49.844 156.143  29.542  0.00  0.00    +0.001 C 
ATOM      9  C   UNL     1      48.610 155.664  29.546  0.00  0.00    +0.000 C 
ENDBRANCH   7   8
ENDBRANCH   1   6
TORSDOF 2
