REMARK  Name = =
REMARK  4 active torsions:
REMARK  status: ('A' for Active; 'I' for Inactive)
REMARK    1  A    between atoms: C_1  and  N_3
REMARK    2  A    between atoms: C_1  and  S_8
REMARK    3  A    between atoms: C_2  and  C_12
REMARK    4  A    between atoms: S_8  and  N_11
REMARK                            x       y       z     vdW  Elec       q    Type
REMARK                         _______ _______ _______ _____ _____    ______ ____
ROOT
ATOM      1  C   UNL     1      52.388 156.778  28.665  0.00  0.00    +0.198 C 
ATOM      2  C   UNL     1      53.511 157.417  28.603  0.00  0.00    +0.037 C 
ENDROOT
BRANCH   1   3
ATOM      3  N   UNL     1      51.206 157.099  29.350  0.00  0.00    -0.130 N 
ATOM      4  N   UNL     1      50.285 156.159  29.707  0.00  0.00    -0.046 NA
ATOM      5  N   UNL     1      49.276 156.701  30.335  0.00  0.00    -0.024 NA
ATOM      6  N   UNL     1      49.476 157.972  30.418  0.00  0.00    -0.107 NA
ATOM      7  C   UNL     1      50.675 158.228  29.807  0.00  0.00    +0.216 C 
ENDBRANCH   1   3
BRANCH   1   8
ATOM      8  S   UNL     1      52.355 155.230  27.732  0.00  0.00    +0.072 S 
ATOM      9  O   UNL     1      53.069 155.511  26.474  0.00  0.00    -0.152 OA
ATOM     10  O   UNL     1      50.938 154.804  27.541  0.00  0.00    -0.152 OA
BRANCH   8  11
ATOM     11  N   UNL     1      53.153 154.091  28.742  0.00  0.00    -0.202 NA
ATOM     12  H   UNL     1      54.123 154.377  28.877  0.00  0.00    +0.144 HD
ATOM     13  H   UNL     1      53.127 153.171  28.303  0.00  0.00    +0.144 HD
ENDBRANCH   8  11
ENDBRANCH   1   8
BRANCH   2  14
ATOM     14  C   UNL     1      53.970 158.648  29.170  0.00  0.00    +0.003 C 
ATOM     15  C   UNL     1      55.285 158.970  29.150  0.00  0.00    +0.000 C 
ENDBRANCH   2  14
TORSDOF 4
