REMARK  Name = =
REMARK  5 active torsions:
REMARK  status: ('A' for Active; 'I' for Inactive)
REMARK    1  A    between atoms: N_1  and  C_16
REMARK    2  A    between atoms: C_5  and  C_6
REMARK    3  A    between atoms: C_16  and  S_18
REMARK    4  A    between atoms: C_17  and  C_22
REMARK    5  A    between atoms: S_18  and  N_21
REMARK                            x       y       z     vdW  Elec       q    Type
REMARK                         _______ _______ _______ _____ _____    ______ ____
ROOT
ATOM      1  N   UNL     1      52.285 156.930  28.654  0.00  0.00    -0.171 N 
ATOM      2  N   UNL     1      53.195 156.631  27.698  0.00  0.00    -0.037 NA
ATOM      3  N   UNL     1      53.831 157.722  27.392  0.00  0.00    -0.022 NA
ATOM      4  N   UNL     1      53.368 158.701  28.115  0.00  0.00    -0.106 NA
ATOM      5  C   UNL     1      52.401 158.226  28.918  0.00  0.00    +0.209 A 
ENDROOT
BRANCH   5   6
ATOM      6  C   UNL     1      51.699 159.023  29.932  0.00  0.00    +0.140 C 
ATOM      7  N   UNL     1      50.482 158.607  30.318  0.00  0.00    -0.145 NA
ATOM      8  N   UNL     1      49.740 159.228  31.215  0.00  0.00    -0.146 NA
ATOM      9  C   UNL     1      50.185 160.343  31.805  0.00  0.00    +0.122 C 
ATOM     10  C   UNL     1      51.418 160.853  31.482  0.00  0.00    +0.023 C 
ATOM     11  C   UNL     1      52.173 160.165  30.524  0.00  0.00    +0.024 C 
ATOM     12  C   UNL     1      53.394 160.645  30.174  0.00  0.00    +0.002 C 
ATOM     13  C   UNL     1      53.854 161.817  30.787  0.00  0.00    +0.000 C 
ATOM     14  C   UNL     1      53.097 162.476  31.723  0.00  0.00    +0.000 C 
ATOM     15  C   UNL     1      51.856 162.011  32.096  0.00  0.00    +0.002 C 
ENDBRANCH   5   6
BRANCH   1  16
ATOM     16  C   UNL     1      51.451 155.966  29.260  0.00  0.00    +0.207 C 
ATOM     17  C   UNL     1      51.886 154.698  29.316  0.00  0.00    +0.040 C 
BRANCH  16  18
ATOM     18  S   UNL     1      49.795 156.239  29.659  0.00  0.00    +0.074 S 
ATOM     19  O   UNL     1      49.260 157.579  29.159  0.00  0.00    -0.152 OA
ATOM     20  O   UNL     1      49.454 156.056  31.078  0.00  0.00    -0.152 OA
BRANCH  18  21
ATOM     21  N   UNL     1      48.868 155.045  28.740  0.00  0.00    -0.202 NA
ATOM     22  H   UNL     1      49.161 154.106  29.010  0.00  0.00    +0.144 HD
ATOM     23  H   UNL     1      49.035 155.179  27.743  0.00  0.00    +0.144 HD
ENDBRANCH  18  21
ENDBRANCH  16  18
BRANCH  17  24
ATOM     24  C   UNL     1      51.024 153.590  29.693  0.00  0.00    +0.003 C 
ATOM     25  C   UNL     1      51.425 152.336  29.574  0.00  0.00    +0.000 C 
ENDBRANCH  17  24
ENDBRANCH   1  16
TORSDOF 5
