REMARK  Name = =
REMARK  7 active torsions:
REMARK  status: ('A' for Active; 'I' for Inactive)
REMARK    1  A    between atoms: C_1  and  C_15
REMARK    2  A    between atoms: C_10  and  C_24
REMARK    3  A    between atoms: N_11  and  C_16
REMARK    4  A    between atoms: C_16  and  S_18
REMARK    5  A    between atoms: C_17  and  C_22
REMARK    6  A    between atoms: S_18  and  N_21
REMARK    7  A    between atoms: C_25  and  C_26
REMARK                            x       y       z     vdW  Elec       q    Type
REMARK                         _______ _______ _______ _____ _____    ______ ____
ROOT
ATOM      1  C   UNL     1      51.262 158.089  29.513  0.00  0.00    +0.140 C 
ATOM      2  N   UNL     1      52.366 158.847  29.528  0.00  0.00    -0.145 NA
ATOM      3  N   UNL     1      53.496 158.502  28.970  0.00  0.00    -0.146 NA
ATOM      4  C   UNL     1      53.661 157.337  28.319  0.00  0.00    +0.122 C 
ATOM      5  C   UNL     1      52.562 156.494  28.259  0.00  0.00    +0.023 C 
ATOM      6  C   UNL     1      51.374 156.882  28.859  0.00  0.00    +0.024 C 
ATOM      7  C   UNL     1      50.322 156.006  28.766  0.00  0.00    +0.002 C 
ATOM      8  C   UNL     1      50.463 154.791  28.099  0.00  0.00    +0.000 C 
ATOM      9  C   UNL     1      51.664 154.449  27.518  0.00  0.00    +0.000 C 
ATOM     10  C   UNL     1      52.741 155.291  27.585  0.00  0.00    +0.002 C 
ENDROOT
BRANCH   1  15
ATOM     11  N   UNL     1      49.879 159.562  31.017  0.00  0.00    -0.171 N 
ATOM     12  N   UNL     1      48.587 159.530  31.389  0.00  0.00    -0.037 NA
ATOM     13  N   UNL     1      47.954 158.549  30.790  0.00  0.00    -0.022 NA
ATOM     14  N   UNL     1      48.841 157.950  30.036  0.00  0.00    -0.106 NA
ATOM     15  C   UNL     1      50.041 158.547  30.156  0.00  0.00    +0.209 A 
BRANCH  11  16
ATOM     16  C   UNL     1      50.844 160.457  31.527  0.00  0.00    +0.207 C 
ATOM     17  C   UNL     1      50.677 160.955  32.756  0.00  0.00    +0.040 C 
BRANCH  16  18
ATOM     18  S   UNL     1      52.078 161.218  30.557  0.00  0.00    +0.074 S 
ATOM     19  O   UNL     1      51.676 161.291  29.090  0.00  0.00    -0.152 OA
ATOM     20  O   UNL     1      53.407 160.597  30.674  0.00  0.00    -0.152 OA
BRANCH  18  21
ATOM     21  N   UNL     1      52.144 162.934  31.036  0.00  0.00    -0.202 NA
ATOM     22  H   UNL     1      52.409 163.003  32.019  0.00  0.00    +0.144 HD
ATOM     23  H   UNL     1      51.227 163.360  30.900  0.00  0.00    +0.144 HD
ENDBRANCH  18  21
ENDBRANCH  16  18
BRANCH  17  24
ATOM     24  C   UNL     1      49.696 160.438  33.697  0.00  0.00    +0.003 C 
ATOM     25  C   UNL     1      49.087 161.217  34.571  0.00  0.00    +0.000 C 
ENDBRANCH  17  24
ENDBRANCH  11  16
ENDBRANCH   1  15
BRANCH  10  26
ATOM     26  C   UNL     1      53.935 155.021  26.834  0.00  0.00    +0.000 C 
ATOM     27  C   UNL     1      54.284 153.989  26.181  0.00  0.00    +0.000 C 
BRANCH  27  28
ATOM     28  C   UNL     1      53.622 152.729  25.984  0.00  0.00    +0.000 C 
ATOM     29  C   UNL     1      54.343 151.694  25.375  0.00  0.00    +0.000 C 
ATOM     30  C   UNL     1      53.791 150.455  25.296  0.00  0.00    +0.000 C 
ATOM     31  C   UNL     1      52.533 150.172  25.799  0.00  0.00    +0.000 C 
ATOM     32  C   UNL     1      51.826 151.182  26.397  0.00  0.00    +0.000 C 
ATOM     33  C   UNL     1      52.384 152.463  26.485  0.00  0.00    +0.000 C 
ENDBRANCH  27  28
ENDBRANCH  10  26
TORSDOF 7
