REMARK  Name = =
REMARK  9 active torsions:
REMARK  status: ('A' for Active; 'I' for Inactive)
REMARK    1  A    between atoms: C_1  and  C_15
REMARK    2  A    between atoms: C_10  and  C_24
REMARK    3  A    between atoms: N_11  and  C_16
REMARK    4  A    between atoms: C_16  and  S_18
REMARK    5  A    between atoms: C_17  and  C_22
REMARK    6  A    between atoms: S_18  and  N_21
REMARK    7  A    between atoms: C_25  and  C_26
REMARK    8  A    between atoms: C_25  and  N_32
REMARK    9  A    between atoms: N_32  and  N_35
REMARK                            x       y       z     vdW  Elec       q    Type
REMARK                         _______ _______ _______ _____ _____    ______ ____
ROOT
ATOM      1  C   UNL     1      61.509 167.443  37.136  0.00  0.00    +0.140 C 
ATOM      2  N   UNL     1      60.207 167.571  36.915  0.00  0.00    -0.145 NA
ATOM      3  N   UNL     1      59.245 166.995  37.617  0.00  0.00    -0.146 NA
ATOM      4  C   UNL     1      59.544 166.196  38.659  0.00  0.00    +0.122 C 
ATOM      5  C   UNL     1      60.874 166.000  38.970  0.00  0.00    +0.023 C 
ATOM      6  C   UNL     1      61.837 166.629  38.200  0.00  0.00    +0.024 C 
ATOM      7  C   UNL     1      63.152 166.437  38.516  0.00  0.00    +0.002 C 
ATOM      8  C   UNL     1      63.482 165.611  39.608  0.00  0.00    +0.000 C 
ATOM      9  C   UNL     1      62.497 165.000  40.354  0.00  0.00    +0.000 C 
ATOM     10  C   UNL     1      61.184 165.190  40.040  0.00  0.00    +0.003 C 
ENDROOT
BRANCH   1  15
ATOM     11  N   UNL     1      63.490 167.653  35.621  0.00  0.00    -0.171 N 
ATOM     12  N   UNL     1      64.011 168.741  34.934  0.00  0.00    -0.037 NA
ATOM     13  N   UNL     1      63.337 169.818  35.173  0.00  0.00    -0.022 NA
ATOM     14  N   UNL     1      62.391 169.475  35.991  0.00  0.00    -0.106 NA
ATOM     15  C   UNL     1      62.464 168.132  36.282  0.00  0.00    +0.209 A 
BRANCH  11  16
ATOM     16  C   UNL     1      64.076 166.407  35.451  0.00  0.00    +0.207 C 
ATOM     17  C   UNL     1      63.727 165.691  34.353  0.00  0.00    +0.040 C 
BRANCH  16  18
ATOM     18  S   UNL     1      65.366 165.706  36.349  0.00  0.00    +0.074 S 
ATOM     19  O   UNL     1      64.895 164.319  36.897  0.00  0.00    -0.152 OA
ATOM     20  O   UNL     1      66.482 165.316  35.424  0.00  0.00    -0.152 OA
BRANCH  18  21
ATOM     21  N   UNL     1      65.976 166.612  37.650  0.00  0.00    -0.202 NA
ATOM     22  H   UNL     1      65.210 166.872  38.272  0.00  0.00    +0.144 HD
ATOM     23  H   UNL     1      66.427 167.455  37.295  0.00  0.00    +0.144 HD
ENDBRANCH  18  21
ENDBRANCH  16  18
BRANCH  17  24
ATOM     24  C   UNL     1      62.708 165.986  33.409  0.00  0.00    +0.003 C 
ATOM     25  C   UNL     1      61.416 165.883  33.820  0.00  0.00    +0.000 C 
ENDBRANCH  17  24
ENDBRANCH  11  16
ENDBRANCH   1  15
BRANCH  10  26
ATOM     26  C   UNL     1      60.152 164.516  40.811  0.00  0.00    +0.017 C 
ATOM     27  C   UNL     1      59.731 163.309  40.600  0.00  0.00    +0.073 C 
BRANCH  27  28
ATOM     28  C   UNL     1      58.696 162.684  41.399  0.00  0.00    +0.015 C 
ATOM     29  C   UNL     1      58.423 161.336  41.431  0.00  0.00    +0.001 C 
ATOM     30  C   UNL     1      57.425 160.760  42.198  0.00  0.00    +0.000 C 
ATOM     31  C   UNL     1      56.640 161.568  42.989  0.00  0.00    +0.000 C 
ATOM     32  C   UNL     1      56.871 162.933  42.995  0.00  0.00    +0.000 C 
ATOM     33  C   UNL     1      57.869 163.469  42.222  0.00  0.00    +0.001 C 
ENDBRANCH  27  28
BRANCH  27  34
ATOM     34  N   UNL     1      60.317 162.560  39.526  0.00  0.00    -0.179 N 
ATOM     35  C   UNL     1      60.366 161.129  39.613  0.00  0.00    +0.324 C 
ATOM     36  O   UNL     1      60.877 160.473  38.676  0.00  0.00    -0.263 OA
BRANCH  34  37
ATOM     37  N   UNL     1      60.836 163.163  38.393  0.00  0.00    -0.219 N 
ATOM     38  C   UNL     1      60.301 162.995  37.088  0.00  0.00    +0.317 C 
ATOM     39  O   UNL     1      59.309 162.272  36.899  0.00  0.00    -0.264 OA
ATOM     40  H   UNL     1      61.624 163.744  38.498  0.00  0.00    +0.174 HD
ENDBRANCH  34  37
ENDBRANCH  27  34
ENDBRANCH  10  26
TORSDOF 9
