MODEL 1
REMARK VINA RESULT:    -9.396      0.000      0.000
REMARK INTER + INTRA:         -12.670
REMARK INTER:                 -12.966
REMARK INTRA:                   0.296
REMARK UNBOUND:                 0.296
REMARK  Name = =
REMARK  7 active torsions:
REMARK  status: ('A' for Active; 'I' for Inactive)
REMARK    1  A    between atoms: N_1  and  C_8
REMARK    2  A    between atoms: C_4  and  S_25
REMARK    3  A    between atoms: C_5  and  C_42
REMARK    4  A    between atoms: C_8  and  N_23
REMARK    5  A    between atoms: C_9  and  C_19
REMARK    6  A    between atoms: N_21  and  N_22
REMARK    7  A    between atoms: C_26  and  N_30
REMARK                            x       y       z     vdW  Elec       q    Type
REMARK                         _______ _______ _______ _____ _____    ______ ____
ROOT
ATOM      1  N   UNL     1       2.782  -3.272  26.246  0.00  0.00    -0.200 N 
ATOM      2  C   UNL     1       2.018  -4.490  26.432  0.00  0.00    +0.242 C 
ATOM      3  O   UNL     1       1.719  -5.288  25.516  0.00  0.00    -0.274 OA
ATOM      4  C   UNL     1       1.698  -4.561  27.847  0.00  0.00    +0.126 C 
ATOM      5  C   UNL     1       1.678  -3.145  28.283  0.00  0.00    +0.170 C 
ATOM      6  C   UNL     1       2.743  -2.516  27.428  0.00  0.00    +0.243 C 
ATOM      7  O   UNL     1       3.433  -1.529  27.729  0.00  0.00    -0.274 OA
ENDROOT
BRANCH   1   8
ATOM      8  C   UNL     1       3.440  -2.998  24.975  0.00  0.00    +0.287 C 
ATOM      9  C   UNL     1       3.916  -1.628  24.752  0.00  0.00    +0.293 C 
ATOM     10  O   UNL     1       3.750  -1.179  23.418  0.00  0.00    -0.438 OA
ATOM     11  C   UNL     1       3.777  -1.880  22.267  0.00  0.00    +0.318 C 
ATOM     12  O   UNL     1       2.867  -1.785  21.378  0.00  0.00    -0.250 OA
ATOM     13  C   UNL     1       4.870  -2.824  21.936  0.00  0.00    +0.113 C 
ATOM     14  C   UNL     1       4.425  -4.235  21.731  0.00  0.00    +0.059 C 
ATOM     15  C   UNL     1       2.968  -4.488  21.901  0.00  0.00    +0.209 C 
ATOM     16  O   UNL     1       2.396  -4.225  23.113  0.00  0.00    -0.446 OA
ATOM     17  C   UNL     1       2.327  -3.188  23.956  0.00  0.00    +0.360 C 
ATOM     18  O   UNL     1       1.436  -2.289  24.049  0.00  0.00    -0.246 OA
BRANCH   9  19
ATOM     19  C   UNL     1       5.293  -1.299  25.141  0.00  0.00    +0.280 C 
ATOM     20  O   UNL     1       5.999  -0.600  24.368  0.00  0.00    -0.270 OA
ATOM     21  N   UNL     1       5.877  -1.749  26.381  0.00  0.00    -0.250 N 
ATOM     22  H   UNL     1       5.363  -2.298  27.016  0.00  0.00    +0.169 HD
BRANCH  21  23
ATOM     23  N   UNL     1       7.179  -1.384  26.645  0.00  0.00    -0.254 NA
ATOM     24  H   UNL     1       7.670  -2.166  27.077  0.00  0.00    +0.140 HD
ATOM     25  H   UNL     1       7.186  -0.585  27.279  0.00  0.00    +0.140 HD
ENDBRANCH  21  23
ENDBRANCH   9  19
BRANCH   8  26
ATOM     26  N   UNL     1       4.437  -4.012  24.806  0.00  0.00    -0.238 NA
ATOM     27  C   UNL     1       4.960  -4.674  25.733  0.00  0.00    +0.116 C 
ENDBRANCH   8  26
ENDBRANCH   1   8
BRANCH   4  28
ATOM     28  S   UNL     1       0.209  -5.384  28.232  0.00  0.00    -0.189 S 
ATOM     29  C   UNL     1      -0.226  -5.475  29.955  0.00  0.00    +0.107 C 
ATOM     30  C   UNL     1       0.010  -6.923  30.314  0.00  0.00    +0.115 C 
ATOM     31  N   UNL     1       0.923  -7.468  29.339  0.00  0.00    -0.206 NA
ATOM     32  C   UNL     1       0.321  -7.244  28.040  0.00  0.00    +0.128 C 
ATOM     33  H   UNL     1      -0.625  -4.671  27.428  0.00  0.00    +0.087 HD
BRANCH  29  34
ATOM     34  N   UNL     1      -1.540  -5.021  30.228  0.00  0.00    -0.262 NA
ATOM     35  C   UNL     1      -2.428  -4.865  29.140  0.00  0.00    +0.095 C 
ATOM     36  C   UNL     1      -3.659  -4.106  29.576  0.00  0.00    +0.111 C 
ATOM     37  N   UNL     1      -4.030  -4.413  30.930  0.00  0.00    -0.275 N 
ATOM     38  C   UNL     1      -3.538  -5.632  31.517  0.00  0.00    +0.111 C 
ATOM     39  C   UNL     1      -2.055  -5.674  31.379  0.00  0.00    +0.095 C 
ATOM     40  C   UNL     1      -4.854  -3.550  31.673  0.00  0.00    +0.220 C 
ATOM     41  N   UNL     1      -5.184  -3.850  32.943  0.00  0.00    -0.212 NA
ATOM     42  C   UNL     1      -5.966  -3.039  33.659  0.00  0.00    +0.103 C 
ATOM     43  C   UNL     1      -6.464  -1.865  33.131  0.00  0.00    +0.041 C 
ATOM     44  C   UNL     1      -6.098  -1.595  31.818  0.00  0.00    +0.103 C 
ATOM     45  N   UNL     1      -5.312  -2.424  31.118  0.00  0.00    -0.212 NA
ENDBRANCH  29  34
ENDBRANCH   4  28
BRANCH   5  46
ATOM     46  C   UNL     1       0.421  -2.427  28.073  0.00  0.00    +0.229 C 
ATOM     47  O   UNL     1      -0.256  -2.068  29.071  0.00  0.00    -0.275 OA
ATOM     48  N   UNL     1      -0.074  -2.114  26.786  0.00  0.00    -0.328 N 
ATOM     49  H   UNL     1       0.434  -2.382  25.986  0.00  0.00    +0.145 HD
ATOM     50  H   UNL     1      -0.924  -1.629  26.690  0.00  0.00    +0.145 HD
ENDBRANCH   5  46
TORSDOF 7
ENDMDL
