MODEL 1
REMARK VINA RESULT:   -10.884      0.000      0.000
REMARK INTER + INTRA:         -15.350
REMARK INTER:                 -14.384
REMARK INTRA:                  -0.966
REMARK UNBOUND:                -0.966
REMARK  Name = =
REMARK  6 active torsions:
REMARK  status: ('A' for Active; 'I' for Inactive)
REMARK    1  A    between atoms: C_1  and  N_7
REMARK    2  A    between atoms: C_2  and  O_26
REMARK    3  A    between atoms: C_5  and  O_25
REMARK    4  A    between atoms: C_9  and  C_12
REMARK    5  A    between atoms: C_16  and  C_20
REMARK    6  A    between atoms: O_26  and  N_27
REMARK                            x       y       z     vdW  Elec       q    Type
REMARK                         _______ _______ _______ _____ _____    ______ ____
ROOT
ATOM      1  C   UNL     1       1.041  -4.458  28.467  0.00  0.00    +0.089 C 
ATOM      2  C   UNL     1      -0.286  -4.269  28.729  0.00  0.00    +0.186 C 
ATOM      3  C   UNL     1      -0.781  -3.010  29.012  0.00  0.00    +0.045 C 
ATOM      4  C   UNL     1       0.095  -1.931  29.029  0.00  0.00    +0.040 C 
ATOM      5  C   UNL     1       1.436  -2.128  28.764  0.00  0.00    +0.135 C 
ATOM      6  C   UNL     1       1.941  -3.376  28.480  0.00  0.00    +0.054 C 
ENDROOT
BRANCH   1   7
ATOM      7  N   UNL     1       1.557  -5.746  28.174  0.00  0.00    -0.290 N 
ATOM      8  C   UNL     1       1.439  -6.439  26.915  0.00  0.00    +0.117 C 
ATOM      9  C   UNL     1       2.556  -7.450  26.964  0.00  0.00    +0.153 C 
ATOM     10  N   UNL     1       2.635  -7.778  28.371  0.00  0.00    -0.273 NA
ATOM     11  C   UNL     1       2.290  -6.583  29.099  0.00  0.00    +0.166 C 
ATOM     12  H   UNL     1       3.581  -8.074  28.611  0.00  0.00    +0.125 HD
BRANCH   9  13
ATOM     13  C   UNL     1       2.215  -8.678  26.193  0.00  0.00    +0.242 C 
ATOM     14  O   UNL     1       1.027  -9.052  26.149  0.00  0.00    -0.273 OA
ATOM     15  N   UNL     1       3.197  -9.433  25.507  0.00  0.00    -0.276 N 
ATOM     16  C   UNL     1       2.757 -10.610  24.767  0.00  0.00    +0.109 C 
ATOM     17  C   UNL     1       3.748 -11.710  25.040  0.00  0.00    +0.074 C 
ATOM     18  N   UNL     1       5.043 -11.255  24.569  0.00  0.00    -0.296 NA
ATOM     19  C   UNL     1       5.534 -10.210  25.408  0.00  0.00    +0.090 C 
ATOM     20  C   UNL     1       4.572  -9.052  25.541  0.00  0.00    +0.111 C 
ATOM     21  H   UNL     1       4.950 -10.905  23.615  0.00  0.00    +0.123 HD
BRANCH  17  22
ATOM     22  C   UNL     1       3.376 -13.044  24.486  0.00  0.00    +0.016 C 
ATOM     23  C   UNL     1       2.057 -13.480  25.058  0.00  0.00    +0.001 C 
ATOM     24  C   UNL     1       2.370 -13.780  26.526  0.00  0.00    +0.000 C 
ATOM     25  C   UNL     1       3.831 -14.169  26.526  0.00  0.00    +0.000 C 
ATOM     26  C   UNL     1       4.341 -14.050  25.122  0.00  0.00    +0.001 C 
ENDBRANCH  17  22
ENDBRANCH   9  13
ENDBRANCH   1   7
BRANCH   5  27
ATOM     27  O   UNL     1       2.333  -1.043  28.776  0.00  0.00    -0.505 OA
ATOM     28  H   UNL     1       3.189  -1.140  28.409  0.00  0.00    +0.292 HD
ENDBRANCH   5  27
BRANCH   2  29
ATOM     29  O   UNL     1      -1.133  -5.389  28.701  0.00  0.00    -0.374 OA
BRANCH  29  30
ATOM     30  N   UNL     1      -1.349  -6.118  29.858  0.00  0.00    -0.195 N 
ATOM     31  C   UNL     1      -2.725  -5.970  30.220  0.00  0.00    +0.093 C 
ATOM     32  C   UNL     1      -3.270  -4.625  30.038  0.00  0.00    +0.020 C 
ATOM     33  C   UNL     1      -4.109  -4.069  31.100  0.00  0.00    +0.002 C 
ATOM     34  C   UNL     1      -4.336  -4.727  32.274  0.00  0.00    +0.000 C 
ATOM     35  C   UNL     1      -3.745  -6.042  32.488  0.00  0.00    +0.001 C 
ATOM     36  C   UNL     1      -2.950  -6.634  31.501  0.00  0.00    +0.015 C 
ATOM     37  C   UNL     1      -2.349  -7.870  31.658  0.00  0.00    -0.019 C 
ATOM     38  C   UNL     1      -2.542  -8.544  32.834  0.00  0.00    -0.004 C 
ATOM     39  C   UNL     1      -3.317  -7.999  33.832  0.00  0.00    -0.000 C 
ATOM     40  C   UNL     1      -3.907  -6.753  33.644  0.00  0.00    +0.000 C 
ATOM     41  C   UNL     1      -1.502  -8.476  30.598  0.00  0.00    +0.054 C 
ATOM     42  C   UNL     1      -0.993  -7.481  29.601  0.00  0.00    +0.149 C 
ATOM     43  C   UNL     1      -5.128  -4.180  33.276  0.00  0.00    +0.000 C 
ATOM     44  C   UNL     1      -5.706  -2.930  33.084  0.00  0.00    +0.000 C 
ATOM     45  C   UNL     1      -5.481  -2.261  31.900  0.00  0.00    +0.000 C 
ATOM     46  C   UNL     1      -4.697  -2.802  30.907  0.00  0.00    +0.000 C 
ENDBRANCH  29  30
ENDBRANCH   2  29
TORSDOF 6
ENDMDL
