REMARK  Name = =
REMARK  6 active torsions:
REMARK  status: ('A' for Active; 'I' for Inactive)
REMARK    1  A    between atoms: C_1  and  N_7
REMARK    2  A    between atoms: C_2  and  O_26
REMARK    3  A    between atoms: C_5  and  O_25
REMARK    4  A    between atoms: C_9  and  C_12
REMARK    5  A    between atoms: C_16  and  C_20
REMARK    6  A    between atoms: O_26  and  N_27
REMARK                            x       y       z     vdW  Elec       q    Type
REMARK                         _______ _______ _______ _____ _____    ______ ____
ROOT
ATOM      1  C   UNL     1     -12.252  -2.553  22.974  0.00  0.00    +0.089 C 
ATOM      2  C   UNL     1     -11.852  -3.584  22.172  0.00  0.00    +0.186 C 
ATOM      3  C   UNL     1     -11.546  -3.369  20.841  0.00  0.00    +0.045 C 
ATOM      4  C   UNL     1     -11.653  -2.084  20.325  0.00  0.00    +0.040 C 
ATOM      5  C   UNL     1     -12.059  -1.045  21.140  0.00  0.00    +0.135 C 
ATOM      6  C   UNL     1     -12.365  -1.245  22.467  0.00  0.00    +0.054 C 
ENDROOT
BRANCH   1   7
ATOM      7  N   UNL     1     -12.566  -2.764  24.341  0.00  0.00    -0.290 N 
ATOM      8  C   UNL     1     -12.923  -1.744  25.295  0.00  0.00    +0.117 C 
ATOM      9  C   UNL     1     -13.645  -2.509  26.375  0.00  0.00    +0.153 C 
ATOM     10  N   UNL     1     -12.973  -3.791  26.368  0.00  0.00    -0.273 NA
ATOM     11  C   UNL     1     -12.579  -4.049  25.006  0.00  0.00    +0.166 C 
ATOM     12  H   UNL     1     -13.606  -4.521  26.694  0.00  0.00    +0.125 HD
BRANCH   9  13
ATOM     13  C   UNL     1     -13.467  -1.870  27.708  0.00  0.00    +0.242 C 
ATOM     14  O   UNL     1     -12.800  -2.463  28.578  0.00  0.00    -0.273 OA
ATOM     15  N   UNL     1     -14.030  -0.608  28.019  0.00  0.00    -0.276 N 
ATOM     16  C   UNL     1     -13.783  -0.061  29.348  0.00  0.00    +0.109 C 
ATOM     17  C   UNL     1     -15.080   0.519  29.844  0.00  0.00    +0.074 C 
ATOM     18  N   UNL     1     -15.471   1.565  28.917  0.00  0.00    -0.296 NA
ATOM     19  C   UNL     1     -15.869   0.995  27.670  0.00  0.00    +0.090 C 
ATOM     20  C   UNL     1     -14.813   0.102  27.060  0.00  0.00    +0.111 C 
ATOM     21  H   UNL     1     -14.681   2.192  28.764  0.00  0.00    +0.123 HD
BRANCH  17  22
ATOM     22  C   UNL     1     -15.058   0.991  31.259  0.00  0.00    +0.016 C 
ATOM     23  C   UNL     1     -15.140  -0.188  32.187  0.00  0.00    +0.001 C 
ATOM     24  C   UNL     1     -16.571  -0.703  32.007  0.00  0.00    +0.000 C 
ATOM     25  C   UNL     1     -17.360   0.519  31.594  0.00  0.00    +0.000 C 
ATOM     26  C   UNL     1     -16.409   1.673  31.499  0.00  0.00    +0.001 C 
ENDBRANCH  17  22
ENDBRANCH   9  13
ENDBRANCH   1   7
BRANCH   5  27
ATOM     27  O   UNL     1     -12.169   0.262  20.630  0.00  0.00    -0.505 OA
ATOM     28  H   UNL     1     -11.968   0.432  19.731  0.00  0.00    +0.292 HD
ENDBRANCH   5  27
BRANCH   2  29
ATOM     29  O   UNL     1     -11.759  -4.866  22.737  0.00  0.00    -0.374 OA
BRANCH  29  30
ATOM     30  N   UNL     1     -11.639  -5.974  21.915  0.00  0.00    -0.195 N 
ATOM     31  C   UNL     1     -10.496  -6.718  22.346  0.00  0.00    +0.093 C 
ATOM     32  C   UNL     1      -9.340  -5.907  22.729  0.00  0.00    +0.020 C 
ATOM     33  C   UNL     1      -8.017  -6.324  22.263  0.00  0.00    +0.002 C 
ATOM     34  C   UNL     1      -7.837  -7.389  21.430  0.00  0.00    +0.000 C 
ATOM     35  C   UNL     1      -8.991  -8.165  20.993  0.00  0.00    +0.001 C 
ATOM     36  C   UNL     1     -10.279  -7.828  21.422  0.00  0.00    +0.015 C 
ATOM     37  C   UNL     1     -11.411  -8.516  21.024  0.00  0.00    -0.019 C 
ATOM     38  C   UNL     1     -11.262  -9.577  20.172  0.00  0.00    -0.004 C 
ATOM     39  C   UNL     1     -10.014  -9.944  19.725  0.00  0.00    -0.000 C 
ATOM     40  C   UNL     1      -8.895  -9.231  20.143  0.00  0.00    +0.000 C 
ATOM     41  C   UNL     1     -12.770  -8.134  21.487  0.00  0.00    +0.054 C 
ATOM     42  C   UNL     1     -12.851  -6.731  22.004  0.00  0.00    +0.149 C 
ATOM     43  C   UNL     1      -6.574  -7.766  20.989  0.00  0.00    +0.000 C 
ATOM     44  C   UNL     1      -5.462  -7.042  21.403  0.00  0.00    +0.000 C 
ATOM     45  C   UNL     1      -5.638  -5.965  22.245  0.00  0.00    +0.000 C 
ATOM     46  C   UNL     1      -6.888  -5.591  22.682  0.00  0.00    +0.000 C 
ENDBRANCH  29  30
ENDBRANCH   2  29
TORSDOF 6
