REMARK  Name = =
REMARK  5 active torsions:
REMARK  status: ('A' for Active; 'I' for Inactive)
REMARK    1  A    between atoms: C_1  and  N_23
REMARK    2  A    between atoms: C_2  and  C_13
REMARK    3  A    between atoms: C_14  and  N_18
REMARK    4  A    between atoms: N_18  and  S_19
REMARK    5  A    between atoms: S_19  and  N_22
REMARK                            x       y       z     vdW  Elec       q    Type
REMARK                         _______ _______ _______ _____ _____    ______ ____
ROOT
ATOM      1  C   UNL     1       1.025  -3.252  27.716  0.00  0.00    +0.090 C 
ATOM      2  C   UNL     1       1.529  -4.340  28.262  0.00  0.00    +0.053 C 
ATOM      3  C   UNL     1       0.715  -5.200  29.107  0.00  0.00    +0.197 C 
ATOM      4  O   UNL     1       1.131  -6.232  29.649  0.00  0.00    -0.287 OA
ATOM      5  C   UNL     1      -0.697  -4.903  29.390  0.00  0.00    +0.042 C 
ATOM      6  C   UNL     1      -1.219  -3.776  28.825  0.00  0.00    +0.043 C 
ATOM      7  C   UNL     1      -2.557  -3.460  29.071  0.00  0.00    +0.003 C 
ATOM      8  C   UNL     1      -3.320  -4.286  29.875  0.00  0.00    +0.000 C 
ATOM      9  C   UNL     1      -2.777  -5.420  30.439  0.00  0.00    +0.000 C 
ATOM     10  C   UNL     1      -1.436  -5.722  30.182  0.00  0.00    +0.003 C 
ATOM     11  C   UNL     1      -0.423  -2.927  27.994  0.00  0.00    +0.209 C 
ATOM     12  O   UNL     1      -0.888  -1.893  27.469  0.00  0.00    -0.285 OA
ENDROOT
BRANCH   2  13
ATOM     13  C   UNL     1       2.975  -4.606  28.063  0.00  0.00    +0.002 C 
ATOM     14  C   UNL     1       3.584  -5.737  28.141  0.00  0.00    +0.121 C 
ATOM     15  C   UNL     1       5.049  -5.490  27.890  0.00  0.00    -0.005 C 
ATOM     16  C   UNL     1       5.293  -4.270  27.682  0.00  0.00    -0.003 C 
ATOM     17  C   UNL     1       3.993  -3.561  27.783  0.00  0.00    -0.003 C 
BRANCH  14  18
ATOM     18  N   UNL     1       3.224  -7.098  28.411  0.00  0.00    -0.163 NA
ATOM     19  H   UNL     1       2.272  -7.095  28.777  0.00  0.00    +0.151 HD
BRANCH  18  20
ATOM     20  S   UNL     1       3.268  -8.226  27.075  0.00  0.00    +0.093 S 
ATOM     21  O   UNL     1       2.859  -7.534  25.803  0.00  0.00    -0.142 OA
ATOM     22  O   UNL     1       2.334  -9.358  27.298  0.00  0.00    -0.142 OA
BRANCH  20  23
ATOM     23  N   UNL     1       4.924  -8.754  26.964  0.00  0.00    -0.193 NA
ATOM     24  H   UNL     1       5.191  -9.221  27.831  0.00  0.00    +0.145 HD
ATOM     25  H   UNL     1       5.529  -7.947  26.813  0.00  0.00    +0.145 HD
ENDBRANCH  20  23
ENDBRANCH  18  20
ENDBRANCH  14  18
ENDBRANCH   2  13
BRANCH   1  26
ATOM     26  N   UNL     1       1.612  -2.285  26.870  0.00  0.00    -0.305 N 
ATOM     27  C   UNL     1       2.194  -0.988  26.844  0.00  0.00    +0.093 C 
ATOM     28  C   UNL     1       1.530  -0.742  25.473  0.00  0.00    +0.043 C 
ATOM     29  C   UNL     1       1.701  -2.249  25.382  0.00  0.00    +0.093 C 
ENDBRANCH   1  26
TORSDOF 5
