MODEL 1
REMARK VINA RESULT:    -6.733      0.000      0.000
REMARK INTER + INTRA:          -7.781
REMARK INTER:                  -7.914
REMARK INTRA:                   0.132
REMARK UNBOUND:                 0.132
REMARK  Name = =
REMARK  3 active torsions:
REMARK  status: ('A' for Active; 'I' for Inactive)
REMARK    1  A    between atoms: C_3  and  N_16
REMARK    2  A    between atoms: C_5  and  C_13
REMARK    3  A    between atoms: C_7  and  C_10
REMARK                            x       y       z     vdW  Elec       q    Type
REMARK                         _______ _______ _______ _____ _____    ______ ____
ROOT
ATOM      1  I   UNL     1      -1.952  -2.236  28.713  0.00  0.00    -0.041 I 
ATOM      2  C   UNL     1      -1.940  -4.270  29.340  0.00  0.00    +0.049 A 
ATOM      3  C   UNL     1      -1.104  -5.151  28.692  0.00  0.00    +0.062 A 
ATOM      4  C   UNL     1      -1.086  -6.472  29.088  0.00  0.00    +0.049 A 
ATOM      5  C   UNL     1      -1.910  -6.902  30.137  0.00  0.00    +0.065 A 
ATOM      6  C   UNL     1      -2.737  -6.004  30.769  0.00  0.00    +0.040 A 
ATOM      7  C   UNL     1      -2.746  -4.685  30.365  0.00  0.00    +0.065 A 
ATOM      8  I   UNL     1      -3.977  -6.632  32.342  0.00  0.00    -0.042 I 
ATOM      9  I   UNL     1       0.184  -7.849  28.112  0.00  0.00    -0.041 I 
ENDROOT
BRANCH   7  10
ATOM     10  C   UNL     1      -3.612  -3.726  31.023  0.00  0.00    +0.244 C 
ATOM     11  O   UNL     1      -4.790  -3.537  30.577  0.00  0.00    -0.270 OA
ATOM     12  N   UNL     1      -3.268  -2.951  32.149  0.00  0.00    -0.325 N 
ATOM     13  H   UNL     1      -2.374  -3.039  32.553  0.00  0.00    +0.145 HD
ATOM     14  H   UNL     1      -3.921  -2.321  32.532  0.00  0.00    +0.145 HD
ENDBRANCH   7  10
BRANCH   5  15
ATOM     15  C   UNL     1      -1.824  -8.307  30.483  0.00  0.00    +0.244 C 
ATOM     16  O   UNL     1      -1.024  -8.756  31.336  0.00  0.00    -0.270 OA
ATOM     17  N   UNL     1      -2.673  -9.238  29.839  0.00  0.00    -0.325 N 
ATOM     18  H   UNL     1      -3.317  -8.930  29.161  0.00  0.00    +0.145 HD
ATOM     19  H   UNL     1      -2.620 -10.193  30.070  0.00  0.00    +0.145 HD
ENDBRANCH   5  15
BRANCH   3  20
ATOM     20  N   UNL     1      -0.250  -4.744  27.617  0.00  0.00    -0.276 N 
ATOM     21  C   UNL     1       1.050  -4.242  27.803  0.00  0.00    +0.304 C 
ATOM     22  O   UNL     1       1.516  -4.136  28.981  0.00  0.00    -0.265 OA
ATOM     23  H   UNL     1      -0.592  -4.821  26.697  0.00  0.00    +0.155 HD
ENDBRANCH   3  20
TORSDOF 3
ENDMDL
