REMARK  Name = =
REMARK  3 active torsions:
REMARK  status: ('A' for Active; 'I' for Inactive)
REMARK    1  A    between atoms: C_3  and  N_16
REMARK    2  A    between atoms: C_5  and  C_13
REMARK    3  A    between atoms: C_7  and  C_10
REMARK                            x       y       z     vdW  Elec       q    Type
REMARK                         _______ _______ _______ _____ _____    ______ ____
ROOT
ATOM      1  I   UNL     1      -3.518  -4.271  32.247  0.00  0.00    -0.041 I 
ATOM      2  C   UNL     1      -4.397  -2.417  31.682  0.00  0.00    +0.049 A 
ATOM      3  C   UNL     1      -3.716  -1.611  30.797  0.00  0.00    +0.062 A 
ATOM      4  C   UNL     1      -4.274  -0.407  30.422  0.00  0.00    +0.049 A 
ATOM      5  C   UNL     1      -5.518  -0.018  30.939  0.00  0.00    +0.065 A 
ATOM      6  C   UNL     1      -6.178  -0.839  31.821  0.00  0.00    +0.040 A 
ATOM      7  C   UNL     1      -5.611  -2.041  32.189  0.00  0.00    +0.065 A 
ATOM      8  I   UNL     1      -8.042  -0.270  32.604  0.00  0.00    -0.042 I 
ATOM      9  I   UNL     1      -3.254   0.853  29.068  0.00  0.00    -0.041 I 
ENDROOT
BRANCH   7  10
ATOM     10  C   UNL     1      -6.297  -2.918  33.118  0.00  0.00    +0.244 C 
ATOM     11  O   UNL     1      -5.631  -3.791  33.763  0.00  0.00    -0.270 OA
ATOM     12  N   UNL     1      -7.681  -2.902  33.388  0.00  0.00    -0.325 N 
ATOM     13  H   UNL     1      -8.265  -2.256  32.929  0.00  0.00    +0.145 HD
ATOM     14  H   UNL     1      -8.064  -3.537  34.036  0.00  0.00    +0.145 HD
ENDBRANCH   7  10
BRANCH   5  15
ATOM     15  C   UNL     1      -6.024   1.264  30.488  0.00  0.00    +0.244 C 
ATOM     16  O   UNL     1      -5.632   1.825  29.439  0.00  0.00    -0.270 OA
ATOM     17  N   UNL     1      -7.009   1.933  31.251  0.00  0.00    -0.325 N 
ATOM     18  H   UNL     1      -7.346   1.529  32.083  0.00  0.00    +0.145 HD
ATOM     19  H   UNL     1      -7.358   2.803  30.950  0.00  0.00    +0.145 HD
ENDBRANCH   5  15
BRANCH   3  20
ATOM     20  N   UNL     1      -2.445  -1.979  30.251  0.00  0.00    -0.276 N 
ATOM     21  C   UNL     1      -2.292  -2.761  29.092  0.00  0.00    +0.304 C 
ATOM     22  O   UNL     1      -3.325  -3.174  28.477  0.00  0.00    -0.265 OA
ATOM     23  H   UNL     1      -1.633  -1.667  30.712  0.00  0.00    +0.155 HD
ENDBRANCH   3  20
TORSDOF 3
