MODEL 1
REMARK VINA RESULT:    -6.542      0.000      0.000
REMARK INTER + INTRA:          -8.251
REMARK INTER:                  -7.690
REMARK INTRA:                  -0.562
REMARK UNBOUND:                -0.562
REMARK  Name = =
REMARK  3 active torsions:
REMARK  status: ('A' for Active; 'I' for Inactive)
REMARK    1  A    between atoms: C_1  and  C_17
REMARK    2  A    between atoms: C_10  and  C_18
REMARK    3  A    between atoms: C_22  and  C_23
REMARK                            x       y       z     vdW  Elec       q    Type
REMARK                         _______ _______ _______ _____ _____    ______ ____
ROOT
ATOM      1  C   UNL     1      54.408 163.589  41.497  0.00  0.00    +0.091 C 
ATOM      2  N   UNL     1      55.362 164.534  42.032  0.00  0.00    -0.294 NA
ATOM      3  C   UNL     1      56.673 164.298  41.533  0.00  0.00    +0.074 C 
ATOM      4  C   UNL     1      57.213 162.926  41.848  0.00  0.00    +0.043 C 
ATOM      5  C   UNL     1      56.162 161.865  41.815  0.00  0.00    -0.025 C 
ATOM      6  C   UNL     1      54.821 162.205  41.694  0.00  0.00    -0.011 C 
ATOM      7  C   UNL     1      53.890 161.193  41.662  0.00  0.00    -0.003 C 
ATOM      8  C   UNL     1      54.377 159.873  41.754  0.00  0.00    -0.001 C 
ATOM      9  C   UNL     1      55.693 159.559  41.871  0.00  0.00    -0.002 C 
ATOM     10  C   UNL     1      56.620 160.566  41.901  0.00  0.00    +0.001 C 
ATOM     11  H   UNL     1      55.375 164.450  43.048  0.00  0.00    +0.124 HD
ENDROOT
BRANCH   1  18
ATOM     12  N   UNL     1      53.098 164.824  43.034  0.00  0.00    -0.297 NA
ATOM     13  C   UNL     1      52.291 166.020  42.943  0.00  0.00    +0.069 C 
ATOM     14  C   UNL     1      52.703 166.997  41.898  0.00  0.00    +0.017 C 
ATOM     15  C   UNL     1      51.965 166.786  40.594  0.00  0.00    +0.001 C 
ATOM     16  C   UNL     1      52.626 165.551  39.958  0.00  0.00    +0.001 C 
ATOM     17  C   UNL     1      52.153 164.395  40.770  0.00  0.00    +0.017 C 
ATOM     18  C   UNL     1      53.019 163.985  41.885  0.00  0.00    +0.073 C 
ATOM     19  H   UNL     1      52.789 164.289  43.845  0.00  0.00    +0.123 HD
ENDBRANCH   1  18
BRANCH  10  20
ATOM     20  C   UNL     1      58.071 160.268  42.088  0.00  0.00    +0.142 C 
ATOM     21  O   UNL     1      58.148 158.967  42.668  0.00  0.00    -0.352 OA
ATOM     22  C   UNL     1      58.873 158.146  41.856  0.00  0.00    +0.143 C 
ATOM     23  C   UNL     1      59.767 159.020  40.994  0.00  0.00    +0.040 C 
ATOM     24  C   UNL     1      58.859 160.205  40.836  0.00  0.00    +0.063 C 
BRANCH  24  25
ATOM     25  C   UNL     1      58.134 160.151  39.567  0.00  0.00    +0.018 C 
ATOM     26  S   UNL     1      58.866 159.985  38.317  0.00  0.00    -0.055 S 
ENDBRANCH  24  25
ENDBRANCH  10  20
TORSDOF 3
ENDMDL
