REMARK  Name = =
REMARK  3 active torsions:
REMARK  status: ('A' for Active; 'I' for Inactive)
REMARK    1  A    between atoms: C_1  and  C_17
REMARK    2  A    between atoms: C_10  and  C_18
REMARK    3  A    between atoms: C_22  and  C_23
REMARK                            x       y       z     vdW  Elec       q    Type
REMARK                         _______ _______ _______ _____ _____    ______ ____
ROOT
ATOM      1  C   UNL     1      51.702 156.621  28.424  0.00  0.00    +0.091 C 
ATOM      2  N   UNL     1      52.701 157.511  27.878  0.00  0.00    -0.294 NA
ATOM      3  C   UNL     1      52.899 157.291  26.487  0.00  0.00    +0.074 C 
ATOM      4  C   UNL     1      53.345 155.893  26.143  0.00  0.00    +0.043 C 
ATOM      5  C   UNL     1      52.725 154.852  27.018  0.00  0.00    -0.025 C 
ATOM      6  C   UNL     1      51.982 155.220  28.132  0.00  0.00    -0.011 C 
ATOM      7  C   UNL     1      51.425 154.227  28.904  0.00  0.00    -0.003 C 
ATOM      8  C   UNL     1      51.655 152.897  28.497  0.00  0.00    -0.001 C 
ATOM      9  C   UNL     1      52.385 152.555  27.404  0.00  0.00    -0.002 C 
ATOM     10  C   UNL     1      52.937 153.544  26.634  0.00  0.00    +0.001 C 
ATOM     11  H   UNL     1      53.583 157.356  28.366  0.00  0.00    +0.124 HD
ENDROOT
BRANCH   1  18
ATOM     12  N   UNL     1      51.820 158.349  30.037  0.00  0.00    -0.297 NA
ATOM     13  C   UNL     1      50.844 159.193  30.688  0.00  0.00    +0.069 C 
ATOM     14  C   UNL     1      49.603 159.460  29.910  0.00  0.00    +0.017 C 
ATOM     15  C   UNL     1      48.499 158.478  30.238  0.00  0.00    +0.001 C 
ATOM     16  C   UNL     1      48.892 157.181  29.512  0.00  0.00    +0.001 C 
ATOM     17  C   UNL     1      50.036 156.630  30.291  0.00  0.00    +0.017 C 
ATOM     18  C   UNL     1      51.380 157.009  29.831  0.00  0.00    +0.073 C 
ATOM     19  H   UNL     1      52.660 158.326  30.614  0.00  0.00    +0.123 HD
ENDBRANCH   1  18
BRANCH  10  20
ATOM     20  C   UNL     1      53.795 153.212  25.458  0.00  0.00    +0.142 C 
ATOM     21  O   UNL     1      55.143 153.209  25.926  0.00  0.00    -0.352 OA
ATOM     22  C   UNL     1      55.701 151.985  25.705  0.00  0.00    +0.143 C 
ATOM     23  C   UNL     1      54.925 151.318  24.583  0.00  0.00    +0.040 C 
ATOM     24  C   UNL     1      53.561 151.870  24.877  0.00  0.00    +0.063 C 
BRANCH  24  25
ATOM     25  C   UNL     1      52.758 150.918  25.643  0.00  0.00    +0.018 C 
ATOM     26  S   UNL     1      53.031 149.489  25.541  0.00  0.00    -0.055 S 
ENDBRANCH  24  25
ENDBRANCH  10  20
TORSDOF 3
