REMARK  Name = =
REMARK  2 active torsions:
REMARK  status: ('A' for Active; 'I' for Inactive)
REMARK    1  A    between atoms: O_1  and  N_2
REMARK    2  A    between atoms: O_1  and  C_3
REMARK                            x       y       z     vdW  Elec       q    Type
REMARK                         _______ _______ _______ _____ _____    ______ ____
ROOT
ATOM      1  O   UNL     1      51.521 155.353  29.258  0.00  0.00    -0.364 OA
ENDROOT
BRANCH   1   2
ATOM      2  N   UNL     1      50.764 156.309  29.915  0.00  0.00    -0.165 NA
ATOM      3  H   UNL     1      50.177 155.856  30.615  0.00  0.00    +0.163 HD
ATOM      4  H   UNL     1      50.174 156.798  29.241  0.00  0.00    +0.163 HD
ENDBRANCH   1   2
BRANCH   1   5
ATOM      5  C   UNL     1      52.416 155.664  28.252  0.00  0.00    +0.437 C 
ATOM      6  O   UNL     1      52.867 156.823  28.148  0.00  0.00    -0.236 OA
ENDBRANCH   1   5
TORSDOF 2
