REMARK  Name = =
REMARK  3 active torsions:
REMARK  status: ('A' for Active; 'I' for Inactive)
REMARK    1  A    between atoms: C_1  and  C_8
REMARK    2  A    between atoms: C_8  and  O_10
REMARK    3  A    between atoms: O_10  and  N_11
REMARK                            x       y       z     vdW  Elec       q    Type
REMARK                         _______ _______ _______ _____ _____    ______ ____
ROOT
ATOM      1  C   UNL     1      52.944 155.270  27.583  0.00  0.00    +0.158 C 
ATOM      2  C   UNL     1      52.512 153.846  27.520  0.00  0.00    +0.161 C 
ATOM      3  O   UNL     1      52.516 153.117  28.490  0.00  0.00    -0.295 OA
ATOM      4  C   UNL     1      52.067 153.381  26.158  0.00  0.00    +0.065 C 
ATOM      5  C   UNL     1      53.314 153.479  25.288  0.00  0.00    +0.008 C 
ATOM      6  C   UNL     1      53.743 154.906  25.237  0.00  0.00    +0.001 C 
ATOM      7  C   UNL     1      52.993 155.811  26.165  0.00  0.00    +0.019 C 
ENDROOT
BRANCH   1   8
ATOM      8  C   UNL     1      51.972 156.021  28.374  0.00  0.00    +0.341 C 
ATOM      9  O   UNL     1      50.819 155.573  28.603  0.00  0.00    -0.248 OA
BRANCH   8  10
ATOM     10  O   UNL     1      52.249 157.280  28.930  0.00  0.00    -0.371 OA
BRANCH  10  11
ATOM     11  N   UNL     1      51.522 157.802  29.949  0.00  0.00    -0.165 NA
ATOM     12  H   UNL     1      51.893 158.720  30.196  0.00  0.00    +0.163 HD
ATOM     13  H   UNL     1      51.578 157.184  30.758  0.00  0.00    +0.163 HD
ENDBRANCH  10  11
ENDBRANCH   8  10
ENDBRANCH   1   8
TORSDOF 3
