REMARK  Name = =
REMARK  2 active torsions:
REMARK  status: ('A' for Active; 'I' for Inactive)
REMARK    1  A    between atoms: C_1  and  C_21
REMARK    2  A    between atoms: C_1  and  N_29
REMARK                            x       y       z     vdW  Elec       q    Type
REMARK                         _______ _______ _______ _____ _____    ______ ____
ROOT
ATOM      1  C   UNL     1     -20.493 -41.415  25.437  0.00  0.00    +0.134 C 
ATOM      2  C   UNL     1     -20.777 -40.709  26.781  0.00  0.00    +0.028 C 
ATOM      3  C   UNL     1     -22.179 -40.428  27.083  0.00  0.00    +0.007 C 
ATOM      4  C   UNL     1     -23.106 -40.484  25.907  0.00  0.00    +0.026 C 
ATOM      5  C   UNL     1     -22.369 -40.052  24.714  0.00  0.00    -0.024 C 
ATOM      6  C   UNL     1     -21.109 -40.492  24.445  0.00  0.00    -0.005 C 
ATOM      7  C   UNL     1     -20.513 -40.044  23.300  0.00  0.00    +0.000 C 
ATOM      8  C   UNL     1     -21.107 -39.181  22.410  0.00  0.00    +0.042 C 
ATOM      9  C   UNL     1     -22.387 -38.743  22.699  0.00  0.00    +0.042 C 
ATOM     10  C   UNL     1     -23.030 -39.167  23.844  0.00  0.00    -0.001 C 
ATOM     11  C   UNL     1     -23.025 -37.828  21.761  0.00  0.00    +0.196 C 
ATOM     12  O   UNL     1     -24.185 -37.435  22.031  0.00  0.00    -0.287 OA
ATOM     13  C   UNL     1     -22.350 -37.372  20.541  0.00  0.00    +0.042 C 
ATOM     14  C   UNL     1     -21.065 -37.813  20.252  0.00  0.00    +0.042 C 
ATOM     15  C   UNL     1     -20.431 -37.383  19.104  0.00  0.00    +0.003 C 
ATOM     16  C   UNL     1     -21.055 -36.519  18.235  0.00  0.00    +0.000 C 
ATOM     17  C   UNL     1     -22.336 -36.074  18.516  0.00  0.00    +0.000 C 
ATOM     18  C   UNL     1     -22.963 -36.507  19.664  0.00  0.00    +0.003 C 
ATOM     19  C   UNL     1     -20.435 -38.728  21.196  0.00  0.00    +0.196 C 
ATOM     20  O   UNL     1     -19.265 -39.118  20.917  0.00  0.00    -0.287 OA
ENDROOT
BRANCH   1  21
ATOM     21  C   UNL     1     -19.050 -41.485  25.356  0.00  0.00    +0.242 C 
ATOM     22  O   UNL     1     -18.675 -40.950  24.189  0.00  0.00    -0.273 OA
ATOM     23  N   UNL     1     -17.962 -41.898  26.044  0.00  0.00    -0.273 N 
ATOM     24  C   UNL     1     -16.616 -41.719  25.415  0.00  0.00    +0.126 C 
ATOM     25  C   UNL     1     -15.582 -42.264  26.331  0.00  0.00    +0.164 C 
ATOM     26  O   UNL     1     -15.618 -41.727  27.614  0.00  0.00    -0.350 OA
ATOM     27  C   UNL     1     -16.880 -41.616  28.127  0.00  0.00    +0.164 C 
ATOM     28  C   UNL     1     -17.857 -42.499  27.337  0.00  0.00    +0.126 C 
ENDBRANCH   1  21
BRANCH   1  29
ATOM     29  N   UNL     1     -21.206 -42.587  25.406  0.00  0.00    -0.265 NA
ATOM     30  C   UNL     1     -21.424 -43.411  24.293  0.00  0.00    +0.074 C 
ATOM     31  C   UNL     1     -21.797 -44.537  25.247  0.00  0.00    +0.035 C 
ATOM     32  C   UNL     1     -21.364 -43.580  26.344  0.00  0.00    +0.074 C 
ENDBRANCH   1  29
TORSDOF 2
