MODEL 1
REMARK VINA RESULT:    -9.993      0.000      0.000
REMARK INTER + INTRA:         -11.013
REMARK INTER:                 -10.577
REMARK INTRA:                  -0.436
REMARK UNBOUND:                -0.436
REMARK  Name = =
REMARK  1 active torsions:
REMARK  status: ('A' for Active; 'I' for Inactive)
REMARK    1  A    between atoms: N_1  and  C_31
REMARK                            x       y       z     vdW  Elec       q    Type
REMARK                         _______ _______ _______ _____ _____    ______ ____
ROOT
ATOM      1  N   UNL     1     -19.827 -41.712  24.181  0.00  0.00    -0.262 N 
ATOM      2  C   UNL     1     -20.378 -42.947  24.662  0.00  0.00    +0.179 C 
ATOM      3  C   UNL     1     -21.747 -43.219  24.228  0.00  0.00    +0.243 C 
ATOM      4  O   UNL     1     -22.051 -44.445  24.086  0.00  0.00    -0.273 OA
ATOM      5  N   UNL     1     -22.742 -42.272  23.955  0.00  0.00    -0.303 N 
ATOM      6  C   UNL     1     -22.912 -41.022  24.685  0.00  0.00    +0.090 C 
ATOM      7  C   UNL     1     -24.338 -41.066  25.248  0.00  0.00    +0.031 C 
ATOM      8  C   UNL     1     -25.338 -40.765  24.134  0.00  0.00    +0.087 C 
ATOM      9  C   UNL     1     -25.187 -39.354  23.705  0.00  0.00    +0.223 C 
ATOM     10  O   UNL     1     -24.958 -38.498  24.606  0.00  0.00    -0.275 OA
ATOM     11  N   UNL     1     -25.282 -38.904  22.382  0.00  0.00    -0.297 N 
ATOM     12  C   UNL     1     -26.117 -39.482  21.360  0.00  0.00    +0.176 C 
ATOM     13  C   UNL     1     -25.331 -39.839  20.146  0.00  0.00    +0.243 C 
ATOM     14  O   UNL     1     -24.532 -40.795  20.243  0.00  0.00    -0.273 OA
ATOM     15  N   UNL     1     -25.451 -39.159  18.918  0.00  0.00    -0.295 N 
ATOM     16  C   UNL     1     -26.091 -37.871  18.787  0.00  0.00    +0.176 C 
ATOM     17  C   UNL     1     -25.433 -36.803  19.555  0.00  0.00    +0.243 C 
ATOM     18  O   UNL     1     -26.015 -36.234  20.538  0.00  0.00    -0.273 OA
ATOM     19  N   UNL     1     -24.121 -36.340  19.256  0.00  0.00    -0.295 N 
ATOM     20  C   UNL     1     -23.061 -37.188  18.768  0.00  0.00    +0.176 C 
ATOM     21  C   UNL     1     -21.830 -36.835  19.532  0.00  0.00    +0.243 C 
ATOM     22  O   UNL     1     -21.597 -35.604  19.697  0.00  0.00    -0.273 OA
ATOM     23  N   UNL     1     -20.951 -37.822  20.057  0.00  0.00    -0.295 N 
ATOM     24  C   UNL     1     -21.197 -39.251  19.868  0.00  0.00    +0.176 C 
ATOM     25  C   UNL     1     -19.936 -39.986  20.143  0.00  0.00    +0.243 C 
ATOM     26  O   UNL     1     -18.862 -39.375  19.811  0.00  0.00    -0.273 OA
ATOM     27  N   UNL     1     -19.856 -41.260  20.720  0.00  0.00    -0.295 N 
ATOM     28  C   UNL     1     -20.747 -41.672  21.790  0.00  0.00    +0.176 C 
ATOM     29  C   UNL     1     -20.249 -41.015  23.036  0.00  0.00    +0.246 C 
ATOM     30  O   UNL     1     -20.212 -39.758  23.049  0.00  0.00    -0.273 OA
ATOM     31  H   UNL     1     -23.369 -42.462  23.220  0.00  0.00    +0.149 HD
ATOM     32  H   UNL     1     -24.732 -38.128  22.129  0.00  0.00    +0.150 HD
ATOM     33  H   UNL     1     -25.081 -39.581  18.110  0.00  0.00    +0.150 HD
ATOM     34  H   UNL     1     -23.925 -35.384  19.390  0.00  0.00    +0.150 HD
ATOM     35  H   UNL     1     -20.157 -37.535  20.562  0.00  0.00    +0.150 HD
ATOM     36  H   UNL     1     -19.177 -41.894  20.392  0.00  0.00    +0.150 HD
ENDROOT
BRANCH   1  37
ATOM     37  C   UNL     1     -18.726 -41.182  25.008  0.00  0.00    +0.171 C 
ATOM     38  C   UNL     1     -17.680 -42.234  25.160  0.00  0.00    +0.107 C 
ATOM     39  N   UNL     1     -17.557 -41.755  26.537  0.00  0.00    -0.256 N 
ATOM     40  C   UNL     1     -16.300 -41.877  27.205  0.00  0.00    +0.063 C 
ATOM     41  C   UNL     1     -15.234 -42.388  26.613  0.00  0.00    -0.010 C 
ATOM     42  C   UNL     1     -15.330 -42.849  25.216  0.00  0.00    +0.029 C 
ATOM     43  C   UNL     1     -16.343 -41.982  24.501  0.00  0.00    +0.027 C 
ATOM     44  C   UNL     1     -18.924 -41.376  26.460  0.00  0.00    +0.249 C 
ATOM     45  O   UNL     1     -19.805 -41.291  27.352  0.00  0.00    -0.273 OA
ENDBRANCH   1  37
TORSDOF 1
ENDMDL
