REMARK  Name = =
REMARK  0 active torsions:
REMARK  status: ('A' for Active; 'I' for Inactive)
REMARK                            x       y       z     vdW  Elec       q    Type
REMARK                         _______ _______ _______ _____ _____    ______ ____
ROOT
ATOM      1  C   UNL     1      -3.650  -3.135  30.904  0.00  0.00    -0.011 C 
ATOM      2  C   UNL     1      -3.729  -4.608  30.793  0.00  0.00    +0.053 C 
ATOM      3  N   UNL     1      -3.291  -5.162  29.552  0.00  0.00    -0.332 N 
ATOM      4  C   UNL     1      -1.864  -5.276  29.421  0.00  0.00    +0.087 C 
ATOM      5  C   UNL     1      -1.372  -4.040  28.700  0.00  0.00    +0.022 C 
ATOM      6  C   UNL     1      -1.437  -2.916  29.733  0.00  0.00    +0.006 C 
ATOM      7  C   UNL     1      -2.841  -2.457  29.842  0.00  0.00    +0.027 C 
ATOM      8  H   UNL     1      -3.915  -5.443  28.844  0.00  0.00    +0.147 HD
ENDROOT
TORSDOF 0
