REMARK  Name = =
REMARK  2 active torsions:
REMARK  status: ('A' for Active; 'I' for Inactive)
REMARK    1  A    between atoms: N_3  and  S_8
REMARK    2  A    between atoms: S_8  and  O_11
REMARK                            x       y       z     vdW  Elec       q    Type
REMARK                         _______ _______ _______ _____ _____    ______ ____
ROOT
ATOM      1  C   UNL     1      -3.710  -4.203  30.311  0.00  0.00    +0.019 C 
ATOM      2  C   UNL     1      -3.636  -5.147  31.454  0.00  0.00    +0.096 C 
ATOM      3  N   UNL     1      -3.207  -6.465  31.146  0.00  0.00    -0.156 NA
ATOM      4  C   UNL     1      -1.972  -6.612  30.496  0.00  0.00    +0.096 C 
ATOM      5  C   UNL     1      -1.652  -5.653  29.411  0.00  0.00    +0.019 C 
ATOM      6  C   UNL     1      -1.218  -4.339  30.041  0.00  0.00    +0.002 C 
ATOM      7  C   UNL     1      -2.398  -3.440  30.124  0.00  0.00    +0.002 C 
ENDROOT
BRANCH   3   8
ATOM      8  S   UNL     1      -3.072  -7.294  32.685  0.00  0.00    +0.049 S 
ATOM      9  O   UNL     1      -2.349  -8.576  32.556  0.00  0.00    -0.056 OA
ATOM     10  O   UNL     1      -2.319  -6.348  33.611  0.00  0.00    -0.056 OA
BRANCH   8  11
ATOM     11  O   UNL     1      -4.615  -7.444  33.292  0.00  0.00    -0.258 OA
ATOM     12  H   UNL     1      -5.027  -6.568  33.349  0.00  0.00    +0.244 HD
ENDBRANCH   8  11
ENDBRANCH   3   8
TORSDOF 2
