REMARK  Name = =
REMARK  3 active torsions:
REMARK  status: ('A' for Active; 'I' for Inactive)
REMARK    1  A    between atoms: C_1  and  C_12
REMARK    2  A    between atoms: N_3  and  S_8
REMARK    3  A    between atoms: S_8  and  O_11
REMARK                            x       y       z     vdW  Elec       q    Type
REMARK                         _______ _______ _______ _____ _____    ______ ____
ROOT
ATOM      1  C   UNL     1      -3.200  -5.976  32.141  0.00  0.00    +0.083 C 
ATOM      2  C   UNL     1      -2.160  -6.341  31.169  0.00  0.00    +0.104 C 
ATOM      3  N   UNL     1      -2.120  -7.699  30.748  0.00  0.00    -0.156 NA
ATOM      4  C   UNL     1      -1.722  -8.636  31.755  0.00  0.00    +0.096 C 
ATOM      5  C   UNL     1      -2.002  -8.178  33.154  0.00  0.00    +0.019 C 
ATOM      6  C   UNL     1      -3.524  -8.177  33.308  0.00  0.00    +0.002 C 
ATOM      7  C   UNL     1      -4.155  -7.069  32.515  0.00  0.00    +0.009 C 
ENDROOT
BRANCH   3   8
ATOM      8  S   UNL     1      -0.905  -7.801  29.492  0.00  0.00    +0.049 S 
ATOM      9  O   UNL     1      -0.672  -9.227  29.089  0.00  0.00    -0.056 OA
ATOM     10  O   UNL     1      -1.227  -6.910  28.353  0.00  0.00    -0.056 OA
BRANCH   8  11
ATOM     11  O   UNL     1       0.539  -7.253  30.173  0.00  0.00    -0.258 OA
ATOM     12  H   UNL     1       0.777  -7.818  30.924  0.00  0.00    +0.244 HD
ENDBRANCH   8  11
ENDBRANCH   3   8
BRANCH   1  13
ATOM     13  C   UNL     1      -4.034  -4.847  31.585  0.00  0.00    +0.208 C 
ATOM     14  O   UNL     1      -3.988  -4.645  30.383  0.00  0.00    -0.288 OA
ENDBRANCH   1  13
TORSDOF 3
