REMARK  Name = =
REMARK  4 active torsions:
REMARK  status: ('A' for Active; 'I' for Inactive)
REMARK    1  A    between atoms: C_1  and  C_9
REMARK    2  A    between atoms: C_1  and  C_19
REMARK    3  A    between atoms: N_3  and  S_15
REMARK    4  A    between atoms: S_15  and  O_18
REMARK                            x       y       z     vdW  Elec       q    Type
REMARK                         _______ _______ _______ _____ _____    ______ ____
ROOT
ATOM      1  C   UNL     1      -3.158  -5.217  31.358  0.00  0.00    +0.091 C 
ATOM      2  C   UNL     1      -3.293  -6.522  30.607  0.00  0.00    +0.105 C 
ATOM      3  N   UNL     1      -1.943  -7.027  30.432  0.00  0.00    -0.155 NA
ATOM      4  C   UNL     1      -1.444  -6.581  29.138  0.00  0.00    +0.096 C 
ATOM      5  C   UNL     1      -0.401  -5.522  29.423  0.00  0.00    +0.019 C 
ATOM      6  C   UNL     1      -0.790  -4.823  30.700  0.00  0.00    +0.002 C 
ATOM      7  C   UNL     1      -2.218  -4.292  30.590  0.00  0.00    +0.010 C 
ENDROOT
BRANCH   1   9
ATOM      8  N   UNL     1      -4.527  -3.988  32.970  0.00  0.00    -0.305 N 
ATOM      9  C   UNL     1      -4.481  -4.559  31.647  0.00  0.00    +0.080 C 
ATOM     10  C   UNL     1      -4.937  -3.581  30.619  0.00  0.00    +0.021 C 
ATOM     11  C   UNL     1      -4.650  -2.136  31.035  0.00  0.00    +0.011 C 
ATOM     12  C   UNL     1      -5.622  -1.834  32.174  0.00  0.00    +0.085 C 
ATOM     13  C   UNL     1      -5.311  -2.845  33.240  0.00  0.00    +0.222 C 
ATOM     14  O   UNL     1      -5.799  -2.607  34.389  0.00  0.00    -0.275 OA
ATOM     15  H   UNL     1      -4.005  -4.401  33.695  0.00  0.00    +0.149 HD
ENDBRANCH   1   9
BRANCH   3  16
ATOM     16  S   UNL     1      -1.882  -8.745  30.444  0.00  0.00    +0.049 S 
ATOM     17  O   UNL     1      -1.960  -9.309  31.812  0.00  0.00    -0.056 OA
ATOM     18  O   UNL     1      -0.675  -9.251  29.713  0.00  0.00    -0.056 OA
BRANCH  16  19
ATOM     19  O   UNL     1      -3.230  -9.300  29.569  0.00  0.00    -0.258 OA
ATOM     20  H   UNL     1      -4.044  -8.998  30.003  0.00  0.00    +0.244 HD
ENDBRANCH  16  19
ENDBRANCH   3  16
BRANCH   1  21
ATOM     21  C   UNL     1      -2.470  -5.538  32.639  0.00  0.00    +0.210 C 
ATOM     22  O   UNL     1      -2.974  -6.375  33.362  0.00  0.00    -0.288 OA
ENDBRANCH   1  21
TORSDOF 4
