REMARK  Name = =
REMARK  12 active torsions:
REMARK  status: ('A' for Active; 'I' for Inactive)
REMARK    1  A    between atoms: C_2  and  C_8
REMARK    2  A    between atoms: C_8  and  C_19
REMARK    3  A    between atoms: N_10  and  S_15
REMARK    4  A    between atoms: S_15  and  O_18
REMARK    5  A    between atoms: O_22  and  O_29
REMARK    6  A    between atoms: O_23  and  O_24
REMARK    7  A    between atoms: O_24  and  P_25
REMARK    8  A    between atoms: P_25  and  O_27
REMARK    9  A    between atoms: P_25  and  O_28
REMARK   10  A    between atoms: O_29  and  P_30
REMARK   11  A    between atoms: P_30  and  O_32
REMARK   12  A    between atoms: P_30  and  O_33
REMARK                            x       y       z     vdW  Elec       q    Type
REMARK                         _______ _______ _______ _____ _____    ______ ____
ROOT
ATOM      1  C   UNL     1      -0.206  -6.967  29.939  0.00  0.00    +0.091 C 
ATOM      2  C   UNL     1      -0.492  -5.588  30.552  0.00  0.00    +0.105 C 
ATOM      3  N   UNL     1      -1.909  -5.506  30.688  0.00  0.00    -0.155 NA
ATOM      4  C   UNL     1      -2.461  -6.279  31.751  0.00  0.00    +0.096 C 
ATOM      5  C   UNL     1      -2.887  -7.612  31.173  0.00  0.00    +0.019 C 
ATOM      6  C   UNL     1      -1.780  -8.591  31.034  0.00  0.00    +0.002 C 
ATOM      7  C   UNL     1      -0.410  -8.007  30.979  0.00  0.00    +0.010 C 
ENDROOT
BRANCH   1   9
ATOM      8  N   UNL     1       1.626  -5.506  29.353  0.00  0.00    -0.305 N 
ATOM      9  C   UNL     1       1.198  -6.908  29.395  0.00  0.00    +0.080 C 
ATOM     10  C   UNL     1       1.402  -7.640  28.111  0.00  0.00    +0.021 C 
ATOM     11  C   UNL     1       2.125  -6.802  27.122  0.00  0.00    +0.011 C 
ATOM     12  C   UNL     1       3.391  -6.260  27.800  0.00  0.00    +0.085 C 
ATOM     13  C   UNL     1       2.882  -5.266  28.760  0.00  0.00    +0.222 C 
ATOM     14  O   UNL     1       3.537  -4.253  29.035  0.00  0.00    -0.275 OA
ATOM     15  H   UNL     1       1.071  -4.778  29.716  0.00  0.00    +0.149 HD
ENDBRANCH   1   9
BRANCH   3  16
ATOM     16  S   UNL     1      -2.606  -4.006  30.403  0.00  0.00    +0.049 S 
ATOM     17  O   UNL     1      -1.648  -2.858  30.501  0.00  0.00    -0.056 OA
ATOM     18  O   UNL     1      -3.695  -3.768  31.411  0.00  0.00    -0.056 OA
BRANCH  16  19
ATOM     19  O   UNL     1      -3.316  -3.928  28.883  0.00  0.00    -0.258 OA
ATOM     20  H   UNL     1      -2.641  -4.078  28.203  0.00  0.00    +0.244 HD
ENDBRANCH  16  19
ENDBRANCH   3  16
BRANCH   1  21
ATOM     21  C   UNL     1      -1.109  -7.122  28.770  0.00  0.00    +0.210 C 
ATOM     22  O   UNL     1      -1.231  -6.187  28.007  0.00  0.00    -0.288 OA
ENDBRANCH   1  21
TORSDOF 4
REMARK  Name = =
REMARK  12 active torsions:
REMARK  status: ('A' for Active; 'I' for Inactive)
REMARK    1  A    between atoms: C_2  and  C_8
REMARK    2  A    between atoms: C_8  and  C_19
REMARK    3  A    between atoms: N_10  and  S_15
REMARK    4  A    between atoms: S_15  and  O_18
REMARK    5  A    between atoms: O_22  and  O_29
REMARK    6  A    between atoms: O_23  and  O_24
REMARK    7  A    between atoms: O_24  and  P_25
REMARK    8  A    between atoms: P_25  and  O_27
REMARK    9  A    between atoms: P_25  and  O_28
REMARK   10  A    between atoms: O_29  and  P_30
REMARK   11  A    between atoms: P_30  and  O_32
REMARK   12  A    between atoms: P_30  and  O_33
REMARK                            x       y       z     vdW  Elec       q    Type
REMARK                         _______ _______ _______ _____ _____    ______ ____
ROOT
ATOM      1  P   UNL     1       2.763  -7.719  25.711  0.00  0.00    +0.000 P 
ENDROOT
TORSDOF 0
REMARK  Name = =
REMARK  12 active torsions:
REMARK  status: ('A' for Active; 'I' for Inactive)
REMARK    1  A    between atoms: C_2  and  C_8
REMARK    2  A    between atoms: C_8  and  C_19
REMARK    3  A    between atoms: N_10  and  S_15
REMARK    4  A    between atoms: S_15  and  O_18
REMARK    5  A    between atoms: O_22  and  O_29
REMARK    6  A    between atoms: O_23  and  O_24
REMARK    7  A    between atoms: O_24  and  P_25
REMARK    8  A    between atoms: P_25  and  O_27
REMARK    9  A    between atoms: P_25  and  O_28
REMARK   10  A    between atoms: O_29  and  P_30
REMARK   11  A    between atoms: P_30  and  O_32
REMARK   12  A    between atoms: P_30  and  O_33
REMARK                            x       y       z     vdW  Elec       q    Type
REMARK                         _______ _______ _______ _____ _____    ______ ____
ROOT
ATOM      1  P   UNL     1       2.970 -10.484  26.123  0.00  0.00    +0.499 P 
ATOM      2  O   UNL     1       3.273 -11.693  25.234  0.00  0.00    -0.225 OA
ENDROOT
BRANCH   1   3
ATOM      3  O   UNL     1       1.724 -10.975  27.170  0.00  0.00    -0.301 OA
ATOM      4  H   UNL     1       1.490 -10.242  27.761  0.00  0.00    +0.222 HD
ENDBRANCH   1   3
BRANCH   1   5
ATOM      5  O   UNL     1       4.381 -10.136  26.968  0.00  0.00    -0.301 OA
ATOM      6  H   UNL     1       4.231  -9.372  27.546  0.00  0.00    +0.222 HD
ENDBRANCH   1   5
BRANCH   1   7
ATOM      7  O   UNL     1       2.498  -9.239  25.116  0.00  0.00    -0.129 OA
BRANCH   7   8
ATOM      8  O   UNL     1       3.306  -9.023  26.290  0.00  0.00    -0.240 OA
ATOM      9  H   UNL     1       3.508  -8.078  26.374  0.00  0.00    +0.254 HD
ENDBRANCH   7   8
ENDBRANCH   1   7
TORSDOF 4
REMARK  Name = =
REMARK  12 active torsions:
REMARK  status: ('A' for Active; 'I' for Inactive)
REMARK    1  A    between atoms: C_2  and  C_8
REMARK    2  A    between atoms: C_8  and  C_19
REMARK    3  A    between atoms: N_10  and  S_15
REMARK    4  A    between atoms: S_15  and  O_18
REMARK    5  A    between atoms: O_22  and  O_29
REMARK    6  A    between atoms: O_23  and  O_24
REMARK    7  A    between atoms: O_24  and  P_25
REMARK    8  A    between atoms: P_25  and  O_27
REMARK    9  A    between atoms: P_25  and  O_28
REMARK   10  A    between atoms: O_29  and  P_30
REMARK   11  A    between atoms: P_30  and  O_32
REMARK   12  A    between atoms: P_30  and  O_33
REMARK                            x       y       z     vdW  Elec       q    Type
REMARK                         _______ _______ _______ _____ _____    ______ ____
ROOT
ATOM      1  P   UNL     1       3.365  -5.499  24.114  0.00  0.00    +0.499 P 
ATOM      2  O   UNL     1       2.209  -4.692  24.619  0.00  0.00    -0.225 OA
ENDROOT
BRANCH   1   3
ATOM      3  O   UNL     1       3.649  -5.088  22.495  0.00  0.00    -0.301 OA
ATOM      4  H   UNL     1       2.852  -5.265  21.972  0.00  0.00    +0.222 HD
ENDBRANCH   1   3
BRANCH   1   5
ATOM      5  O   UNL     1       4.802  -5.162  24.964  0.00  0.00    -0.301 OA
ATOM      6  H   UNL     1       4.683  -5.384  25.901  0.00  0.00    +0.222 HD
ENDBRANCH   1   5
BRANCH   1   7
ATOM      7  O   UNL     1       3.095  -7.159  24.182  0.00  0.00    -0.129 OA
BRANCH   7   8
ATOM      8  O   UNL     1       1.584  -7.317  24.574  0.00  0.00    -0.240 OA
ATOM      9  H   UNL     1       1.361  -8.259  24.631  0.00  0.00    +0.254 HD
ENDBRANCH   7   8
ENDBRANCH   1   7
TORSDOF 4
