REMARK  Name = =
REMARK  1 active torsions:
REMARK  status: ('A' for Active; 'I' for Inactive)
REMARK    1  A    between atoms: S_1  and  C_2
REMARK                            x       y       z     vdW  Elec       q    Type
REMARK                         _______ _______ _______ _____ _____    ______ ____
ROOT
ATOM      1  S   UNL     1     -13.156 -43.459  27.295  0.00  0.00    -0.097 S 
ATOM      2  H   UNL     1     -13.021 -44.753  26.898  0.00  0.00    +0.110 HD
ENDROOT
BRANCH   1   3
ATOM      3  C   UNL     1     -14.809 -42.917  26.985  0.00  0.00    +0.262 C 
ATOM      4  O   UNL     1     -15.156 -41.791  27.262  0.00  0.00    -0.276 OA
ENDBRANCH   1   3
TORSDOF 1
