REMARK  Name = =
REMARK  1 active torsions:
REMARK  status: ('A' for Active; 'I' for Inactive)
REMARK    1  A    between atoms: N_1  and  N_16
REMARK                            x       y       z     vdW  Elec       q    Type
REMARK                         _______ _______ _______ _____ _____    ______ ____
ROOT
ATOM      1  N   UNL     1      -1.153  -4.178  29.902  0.00  0.00    -0.235 N 
ATOM      2  C   UNL     1      -2.443  -3.888  30.496  0.00  0.00    +0.166 C 
ATOM      3  N   UNL     1      -3.534  -3.908  29.547  0.00  0.00    -0.199 NA
ATOM      4  C   UNL     1      -4.686  -4.092  30.411  0.00  0.00    +0.091 C 
ATOM      5  C   UNL     1      -4.254  -5.304  31.237  0.00  0.00    +0.026 C 
ATOM      6  C   UNL     1      -2.775  -5.058  31.366  0.00  0.00    +0.061 C 
ATOM      7  C   UNL     1      -1.957  -6.156  30.789  0.00  0.00    -0.005 C 
ATOM      8  C   UNL     1      -1.023  -5.593  29.946  0.00  0.00    +0.060 C 
ATOM      9  C   UNL     1      -0.141  -6.469  29.299  0.00  0.00    +0.016 C 
ATOM     10  C   UNL     1      -0.177  -7.831  29.472  0.00  0.00    +0.001 C 
ATOM     11  C   UNL     1      -1.117  -8.376  30.316  0.00  0.00    -0.000 C 
ATOM     12  C   UNL     1      -1.999  -7.548  30.970  0.00  0.00    -0.003 C 
ENDROOT
BRANCH   1  16
ATOM     13  C   UNL     1      -0.221  -3.725  27.057  0.00  0.00    +0.078 C 
ATOM     14  S   UNL     1      -1.398  -2.349  27.379  0.00  0.00    -0.120 S 
ATOM     15  C   UNL     1      -0.820  -1.987  29.091  0.00  0.00    +0.149 C 
ATOM     16  N   UNL     1      -0.260  -3.283  29.415  0.00  0.00    -0.192 NA
ATOM     17  C   UNL     1       0.577  -3.660  28.340  0.00  0.00    +0.105 C 
ENDBRANCH   1  16
TORSDOF 1
