REMARK  Name = =
REMARK  2 active torsions:
REMARK  status: ('A' for Active; 'I' for Inactive)
REMARK    1  A    between atoms: C_1  and  N_18
REMARK    2  A    between atoms: N_4  and  N_6
REMARK                            x       y       z     vdW  Elec       q    Type
REMARK                         _______ _______ _______ _____ _____    ______ ____
ROOT
ATOM      1  C   UNL     1      -8.251  -5.398  21.348  0.00  0.00    +0.147 C 
ATOM      2  S   UNL     1      -8.724  -6.246  22.910  0.00  0.00    -0.100 S 
ATOM      3  C   UNL     1      -8.791  -7.947  22.209  0.00  0.00    +0.151 C 
ATOM      4  N   UNL     1      -8.848  -7.618  20.793  0.00  0.00    -0.190 NA
ATOM      5  C   UNL     1      -7.811  -6.632  20.546  0.00  0.00    +0.124 C 
ENDROOT
BRANCH   4   6
ATOM      6  N   UNL     1      -8.704  -8.703  19.966  0.00  0.00    -0.235 N 
ATOM      7  C   UNL     1      -8.715 -10.122  20.312  0.00  0.00    +0.166 C 
ATOM      8  N   UNL     1     -10.042 -10.613  20.504  0.00  0.00    -0.199 NA
ATOM      9  C   UNL     1     -10.155 -11.875  19.817  0.00  0.00    +0.091 C 
ATOM     10  C   UNL     1      -9.048 -11.954  18.813  0.00  0.00    +0.026 C 
ATOM     11  C   UNL     1      -8.098 -10.832  19.159  0.00  0.00    +0.061 C 
ATOM     12  C   UNL     1      -8.153  -9.846  18.030  0.00  0.00    -0.005 C 
ATOM     13  C   UNL     1      -8.506  -8.634  18.548  0.00  0.00    +0.060 C 
ATOM     14  C   UNL     1      -8.617  -7.557  17.659  0.00  0.00    +0.016 C 
ATOM     15  C   UNL     1      -8.374  -7.738  16.315  0.00  0.00    +0.001 C 
ATOM     16  C   UNL     1      -8.019  -8.982  15.838  0.00  0.00    -0.000 C 
ATOM     17  C   UNL     1      -7.902 -10.056  16.676  0.00  0.00    -0.003 C 
ENDBRANCH   4   6
BRANCH   1  18
ATOM     18  N   UNL     1      -7.168  -4.484  21.554  0.00  0.00    -0.245 N 
ATOM     19  C   UNL     1      -7.212  -3.150  21.610  0.00  0.00    +0.159 C 
ATOM     20  N   UNL     1      -8.218  -2.282  21.496  0.00  0.00    -0.207 NA
ATOM     21  C   UNL     1      -7.996  -0.959  21.592  0.00  0.00    +0.201 C 
ATOM     22  N   UNL     1      -6.750  -0.499  21.803  0.00  0.00    -0.208 NA
ATOM     23  C   UNL     1      -5.694  -1.299  21.927  0.00  0.00    +0.148 C 
ATOM     24  C   UNL     1      -5.939  -2.672  21.826  0.00  0.00    +0.146 C 
ATOM     25  N   UNL     1      -5.121  -3.731  21.902  0.00  0.00    -0.222 NA
ATOM     26  C   UNL     1      -5.877  -4.839  21.735  0.00  0.00    +0.170 C 
ATOM     27  N   UNL     1      -4.368  -0.863  22.149  0.00  0.00    -0.341 N 
ATOM     28  H   UNL     1      -4.172   0.099  22.223  0.00  0.00    +0.144 HD
ATOM     29  H   UNL     1      -3.640  -1.521  22.229  0.00  0.00    +0.144 HD
ENDBRANCH   1  18
TORSDOF 2
