REMARK  Name = =
REMARK  4 active torsions:
REMARK  status: ('A' for Active; 'I' for Inactive)
REMARK    1  A    between atoms: N_1  and  N_22
REMARK    2  A    between atoms: C_5  and  N_13
REMARK    3  A    between atoms: C_19  and  N_24
REMARK    4  A    between atoms: C_29  and  N_33
REMARK                            x       y       z     vdW  Elec       q    Type
REMARK                         _______ _______ _______ _____ _____    ______ ____
ROOT
ATOM      1  N   UNL     1      -8.833  -8.226  19.349  0.00  0.00    -0.235 N 
ATOM      2  C   UNL     1      -9.867  -8.914  18.673  0.00  0.00    +0.167 C 
ATOM      3  N   UNL     1     -10.930  -9.530  19.323  0.00  0.00    -0.197 NA
ATOM      4  C   UNL     1     -11.360 -10.494  18.287  0.00  0.00    +0.111 C 
ATOM      5  C   UNL     1     -10.087 -10.825  17.481  0.00  0.00    +0.100 C 
ATOM      6  C   UNL     1      -9.068 -10.151  18.275  0.00  0.00    +0.079 C 
ATOM      7  C   UNL     1      -7.906  -9.525  17.693  0.00  0.00    -0.003 C 
ATOM      8  C   UNL     1      -7.741  -8.332  18.390  0.00  0.00    +0.060 C 
ATOM      9  C   UNL     1      -6.683  -7.458  18.115  0.00  0.00    +0.016 C 
ATOM     10  C   UNL     1      -5.767  -7.771  17.123  0.00  0.00    +0.001 C 
ATOM     11  C   UNL     1      -5.940  -8.956  16.438  0.00  0.00    -0.000 C 
ATOM     12  C   UNL     1      -6.978  -9.820  16.703  0.00  0.00    -0.003 C 
ENDROOT
BRANCH   5  13
ATOM     13  N   UNL     1      -9.878 -12.260  17.527  0.00  0.00    -0.279 N 
ATOM     14  C   UNL     1      -9.768 -13.138  16.380  0.00  0.00    +0.094 C 
ATOM     15  C   UNL     1     -10.313 -14.442  16.909  0.00  0.00    +0.031 C 
ATOM     16  C   UNL     1      -9.966 -14.429  18.388  0.00  0.00    +0.087 C 
ATOM     17  C   UNL     1      -9.747 -13.003  18.722  0.00  0.00    +0.226 C 
ATOM     18  O   UNL     1      -9.492 -12.594  19.895  0.00  0.00    -0.275 OA
ENDBRANCH   5  13
BRANCH   1  22
ATOM     19  C   UNL     1      -8.188  -5.492  21.482  0.00  0.00    +0.147 C 
ATOM     20  S   UNL     1      -7.385  -6.811  22.484  0.00  0.00    -0.100 S 
ATOM     21  C   UNL     1      -8.180  -8.237  21.634  0.00  0.00    +0.151 C 
ATOM     22  N   UNL     1      -8.767  -7.612  20.531  0.00  0.00    -0.190 NA
ATOM     23  C   UNL     1      -9.216  -6.334  20.741  0.00  0.00    +0.124 C 
BRANCH  19  24
ATOM     24  N   UNL     1      -8.793  -4.530  22.355  0.00  0.00    -0.245 N 
ATOM     25  C   UNL     1      -9.709  -4.799  23.308  0.00  0.00    +0.159 C 
ATOM     26  N   UNL     1     -10.293  -5.958  23.704  0.00  0.00    -0.207 NA
ATOM     27  C   UNL     1     -11.194  -5.949  24.701  0.00  0.00    +0.201 C 
ATOM     28  N   UNL     1     -11.529  -4.798  25.315  0.00  0.00    -0.208 NA
ATOM     29  C   UNL     1     -10.980  -3.626  24.959  0.00  0.00    +0.148 C 
ATOM     30  C   UNL     1     -10.047  -3.626  23.930  0.00  0.00    +0.146 C 
ATOM     31  N   UNL     1      -9.323  -2.660  23.337  0.00  0.00    -0.222 NA
ATOM     32  C   UNL     1      -8.566  -3.204  22.386  0.00  0.00    +0.170 C 
BRANCH  29  33
ATOM     33  N   UNL     1     -11.312  -2.393  25.588  0.00  0.00    -0.341 N 
ATOM     34  H   UNL     1     -11.971  -2.375  26.319  0.00  0.00    +0.144 HD
ATOM     35  H   UNL     1     -10.882  -1.558  25.292  0.00  0.00    +0.144 HD
ENDBRANCH  29  33
ENDBRANCH  19  24
ENDBRANCH   1  22
TORSDOF 4
