MODEL 1
REMARK VINA RESULT:    -6.770      0.000      0.000
REMARK INTER + INTRA:          -8.875
REMARK INTER:                  -7.957
REMARK INTRA:                  -0.919
REMARK UNBOUND:                -0.919
REMARK  Name = =
REMARK  4 active torsions:
REMARK  status: ('A' for Active; 'I' for Inactive)
REMARK    1  A    between atoms: N_1  and  C_11
REMARK    2  A    between atoms: C_6  and  O_24
REMARK    3  A    between atoms: C_7  and  O_23
REMARK    4  A    between atoms: C_11  and  C_17
REMARK                            x       y       z     vdW  Elec       q    Type
REMARK                         _______ _______ _______ _____ _____    ______ ____
ROOT
ATOM      1  N   UNL     1      60.651 161.912  39.157  0.00  0.00    -0.271 NA
ATOM      2  C   UNL     1      60.758 161.506  37.836  0.00  0.00    +0.099 C 
ATOM      3  C   UNL     1      60.170 162.502  36.904  0.00  0.00    -0.007 C 
ATOM      4  C   UNL     1      60.639 163.812  37.096  0.00  0.00    -0.020 C 
ATOM      5  C   UNL     1      60.201 164.836  36.313  0.00  0.00    +0.035 C 
ATOM      6  C   UNL     1      59.283 164.568  35.320  0.00  0.00    +0.167 C 
ATOM      7  C   UNL     1      58.819 163.271  35.130  0.00  0.00    +0.167 C 
ATOM      8  C   UNL     1      59.258 162.229  35.918  0.00  0.00    +0.037 C 
ATOM      9  C   UNL     1      61.632 163.949  38.190  0.00  0.00    +0.044 C 
ATOM     10  C   UNL     1      61.017 163.273  39.393  0.00  0.00    +0.077 C 
ENDROOT
BRANCH   1  11
ATOM     11  C   UNL     1      59.899 161.285  40.150  0.00  0.00    +0.053 C 
ATOM     12  C   UNL     1      60.434 161.679  41.556  0.00  0.00    +0.023 C 
ATOM     13  C   UNL     1      61.724 160.924  41.705  0.00  0.00    +0.066 C 
ATOM     14  C   UNL     1      61.750 160.009  40.545  0.00  0.00    +0.152 C 
ATOM     15  O   UNL     1      62.722 159.543  40.008  0.00  0.00    -0.296 OA
ATOM     16  C   UNL     1      60.316 159.803  40.206  0.00  0.00    +0.079 C 
BRANCH  11  17
ATOM     17  C   UNL     1      58.422 161.444  40.184  0.00  0.00    +0.014 C 
ATOM     18  C   UNL     1      57.569 160.243  40.215  0.00  0.00    +0.001 C 
ATOM     19  C   UNL     1      57.024 159.932  41.609  0.00  0.00    +0.000 C 
ATOM     20  C   UNL     1      56.054 160.993  42.058  0.00  0.00    +0.000 C 
ATOM     21  C   UNL     1      56.404 162.248  41.299  0.00  0.00    +0.000 C 
ATOM     22  C   UNL     1      57.915 162.419  41.240  0.00  0.00    +0.001 C 
ENDBRANCH  11  17
ENDBRANCH   1  11
BRANCH   7  23
ATOM     23  O   UNL     1      57.893 163.042  34.116  0.00  0.00    -0.503 OA
ATOM     24  H   UNL     1      57.484 162.203  34.037  0.00  0.00    +0.292 HD
ENDBRANCH   7  23
BRANCH   6  25
ATOM     25  O   UNL     1      58.811 165.586  34.501  0.00  0.00    -0.503 OA
ATOM     26  H   UNL     1      59.270 165.805  33.714  0.00  0.00    +0.292 HD
ENDBRANCH   6  25
TORSDOF 4
ENDMDL
