MODEL 1
REMARK VINA RESULT:    -7.561      0.000      0.000
REMARK INTER + INTRA:         -12.919
REMARK INTER:                 -11.318
REMARK INTRA:                  -1.601
REMARK UNBOUND:                -1.601
REMARK  Name = =
REMARK  10 active torsions:
REMARK  status: ('A' for Active; 'I' for Inactive)
REMARK    1  A    between atoms: C_1  and  C_20
REMARK    2  A    between atoms: C_6  and  O_28
REMARK    3  A    between atoms: C_17  and  N_24
REMARK    4  A    between atoms: N_24  and  N_25
REMARK    5  A    between atoms: O_28  and  P_29
REMARK    6  A    between atoms: P_29  and  O_31
REMARK    7  A    between atoms: P_29  and  O_32
REMARK    8  A    between atoms: O_32  and  P_33
REMARK    9  A    between atoms: P_33  and  O_35
REMARK   10  A    between atoms: P_33  and  O_36
REMARK                            x       y       z     vdW  Elec       q    Type
REMARK                         _______ _______ _______ _____ _____    ______ ____
ROOT
ATOM      1  C   UNL     1      56.107 162.049  41.574  0.00  0.00    +0.145 C 
ATOM      2  O   UNL     1      55.922 160.928  42.165  0.00  0.00    -0.453 OA
ATOM      3  C   UNL     1      56.795 160.022  41.881  0.00  0.00    +0.148 C 
ATOM      4  C   UNL     1      57.695 160.575  40.987  0.00  0.00    +0.072 C 
ATOM      5  C   UNL     1      57.267 161.866  40.784  0.00  0.00    +0.044 C 
ATOM      6  C   UNL     1      58.763 159.894  40.466  0.00  0.00    +0.152 C 
ATOM      7  C   UNL     1      58.872 158.551  40.928  0.00  0.00    +0.038 C 
ATOM      8  C   UNL     1      57.991 158.006  41.804  0.00  0.00    +0.006 C 
ATOM      9  C   UNL     1      56.930 158.722  42.307  0.00  0.00    +0.038 C 
ENDROOT
BRANCH   1  20
ATOM     10  N   UNL     1      52.006 164.607  41.806  0.00  0.00    -0.245 NA
ATOM     11  C   UNL     1      53.348 164.599  41.722  0.00  0.00    +0.081 C 
ATOM     12  C   UNL     1      54.012 163.364  41.691  0.00  0.00    +0.021 C 
ATOM     13  C   UNL     1      53.241 162.222  41.749  0.00  0.00    +0.003 C 
ATOM     14  C   UNL     1      51.847 162.261  41.834  0.00  0.00    +0.018 C 
ATOM     15  C   UNL     1      51.251 163.500  41.862  0.00  0.00    +0.083 C 
ATOM     16  C   UNL     1      49.869 163.532  41.947  0.00  0.00    +0.035 C 
ATOM     17  C   UNL     1      49.093 162.396  42.003  0.00  0.00    +0.063 C 
ATOM     18  C   UNL     1      49.747 161.180  41.973  0.00  0.00    +0.016 C 
ATOM     19  C   UNL     1      51.111 161.094  41.889  0.00  0.00    +0.003 C 
ATOM     20  C   UNL     1      55.380 163.308  41.605  0.00  0.00    +0.036 C 
ATOM     21  C   UNL     1      56.074 164.499  41.552  0.00  0.00    +0.003 C 
ATOM     22  C   UNL     1      55.427 165.729  41.583  0.00  0.00    +0.002 C 
ATOM     23  C   UNL     1      54.076 165.776  41.667  0.00  0.00    +0.019 C 
BRANCH  17  24
ATOM     24  N   UNL     1      47.675 162.464  42.095  0.00  0.00    -0.263 N 
ATOM     25  H   UNL     1      47.145 161.654  41.913  0.00  0.00    +0.170 HD
BRANCH  24  26
ATOM     26  N   UNL     1      47.014 163.649  42.436  0.00  0.00    -0.229 N 
ATOM     27  C   UNL     1      46.462 164.481  41.437  0.00  0.00    +0.316 C 
ATOM     28  O   UNL     1      46.524 164.223  40.215  0.00  0.00    -0.264 OA
ATOM     29  H   UNL     1      46.932 163.905  43.383  0.00  0.00    +0.173 HD
ENDBRANCH  24  26
ENDBRANCH  17  24
ENDBRANCH   1  20
BRANCH   6  30
ATOM     30  O   UNL     1      59.679 160.315  39.615  0.00  0.00    -0.402 OA
BRANCH  30  31
ATOM     31  P   UNL     1      61.247 160.782  39.693  0.00  0.00    +0.539 P 
ATOM     32  O   UNL     1      61.431 161.878  40.749  0.00  0.00    -0.215 OA
BRANCH  31  33
ATOM     33  O   UNL     1      62.349 159.551  40.064  0.00  0.00    -0.293 OA
ATOM     34  H   UNL     1      61.886 158.828  40.516  0.00  0.00    +0.223 HD
ENDBRANCH  31  33
BRANCH  31  35
ATOM     35  O   UNL     1      61.754 161.562  38.241  0.00  0.00    -0.176 OA
BRANCH  35  36
ATOM     36  P   UNL     1      60.477 162.445  37.580  0.00  0.00    +0.482 P 
ATOM     37  O   UNL     1      61.085 163.504  36.688  0.00  0.00    -0.227 OA
BRANCH  36  38
ATOM     38  O   UNL     1      59.616 163.273  38.797  0.00  0.00    -0.302 OA
ATOM     39  H   UNL     1      60.149 164.016  39.122  0.00  0.00    +0.222 HD
ENDBRANCH  36  38
BRANCH  36  40
ATOM     40  O   UNL     1      59.399 161.493  36.733  0.00  0.00    -0.302 OA
ATOM     41  H   UNL     1      58.689 162.048  36.374  0.00  0.00    +0.222 HD
ENDBRANCH  36  40
ENDBRANCH  35  36
ENDBRANCH  31  35
ENDBRANCH  30  31
ENDBRANCH   6  30
TORSDOF 10
ENDMDL
