REMARK  Name = =
REMARK  2 active torsions:
REMARK  status: ('A' for Active; 'I' for Inactive)
REMARK    1  A    between atoms: S_1  and  N_4
REMARK    2  A    between atoms: S_1  and  O_5
REMARK                            x       y       z     vdW  Elec       q    Type
REMARK                         _______ _______ _______ _____ _____    ______ ____
ROOT
ATOM      1  S   UNL     1      -4.389  -3.738  30.887  0.00  0.00    +0.042 S 
ATOM      2  O   UNL     1      -4.420  -4.372  29.546  0.00  0.00    -0.056 OA
ATOM      3  O   UNL     1      -4.638  -4.783  31.948  0.00  0.00    -0.056 OA
ENDROOT
BRANCH   1   4
ATOM      4  N   UNL     1      -2.924  -2.920  31.226  0.00  0.00    -0.204 NA
ATOM      5  H   UNL     1      -2.971  -2.510  32.159  0.00  0.00    +0.144 HD
ATOM      6  H   UNL     1      -2.780  -2.182  30.537  0.00  0.00    +0.144 HD
ENDBRANCH   1   4
BRANCH   1   7
ATOM      7  O   UNL     1      -5.640  -2.613  31.032  0.00  0.00    -0.259 OA
ATOM      8  H   UNL     1      -5.609  -2.206  31.912  0.00  0.00    +0.244 HD
ENDBRANCH   1   7
TORSDOF 2
