REMARK  Name = =
REMARK  3 active torsions:
REMARK  status: ('A' for Active; 'I' for Inactive)
REMARK    1  A    between atoms: S_1  and  N_4
REMARK    2  A    between atoms: S_1  and  O_5
REMARK    3  A    between atoms: O_5  and  N_6
REMARK                            x       y       z     vdW  Elec       q    Type
REMARK                         _______ _______ _______ _____ _____    ______ ____
ROOT
ATOM      1  S   UNL     1      -4.531  -3.488  30.900  0.00  0.00    +0.061 S 
ATOM      2  O   UNL     1      -4.553  -4.641  31.874  0.00  0.00    -0.055 OA
ATOM      3  O   UNL     1      -4.415  -4.051  29.526  0.00  0.00    -0.055 OA
ENDROOT
BRANCH   1   4
ATOM      4  N   UNL     1      -6.001  -2.573  31.026  0.00  0.00    -0.202 NA
ATOM      5  H   UNL     1      -6.082  -2.187  31.967  0.00  0.00    +0.144 HD
ATOM      6  H   UNL     1      -6.798  -3.182  30.839  0.00  0.00    +0.144 HD
ENDBRANCH   1   4
BRANCH   1   7
ATOM      7  O   UNL     1      -3.212  -2.533  31.317  0.00  0.00    -0.154 OA
BRANCH   7   8
ATOM      8  N   UNL     1      -2.090  -2.897  30.666  0.00  0.00    -0.189 NA
ATOM      9  H   UNL     1      -1.320  -2.291  30.951  0.00  0.00    +0.152 HD
ATOM     10  H   UNL     1      -2.237  -2.810  29.660  0.00  0.00    +0.152 HD
ENDBRANCH   7   8
ENDBRANCH   1   7
TORSDOF 3
