REMARK  Name = =
REMARK  3 active torsions:
REMARK  status: ('A' for Active; 'I' for Inactive)
REMARK    1  A    between atoms: S_1  and  N_4
REMARK    2  A    between atoms: S_1  and  O_10
REMARK    3  A    between atoms: O_10  and  N_11
REMARK                            x       y       z     vdW  Elec       q    Type
REMARK                         _______ _______ _______ _____ _____    ______ ____
ROOT
ATOM      1  S   UNL     1      -3.565  -3.414  30.458  0.00  0.00    +0.081 S 
ATOM      2  O   UNL     1      -2.636  -2.620  29.609  0.00  0.00    -0.051 OA
ATOM      3  O   UNL     1      -4.341  -4.361  29.564  0.00  0.00    -0.051 OA
ENDROOT
BRANCH   1   4
ATOM      4  N   UNL     1      -2.640  -4.369  31.563  0.00  0.00    -0.168 N 
ATOM      5  C   UNL     1      -3.186  -5.592  32.101  0.00  0.00    +0.309 C 
ATOM      6  N   UNL     1      -4.054  -6.330  31.503  0.00  0.00    -0.192 NA
ATOM      7  C   UNL     1      -4.400  -7.488  32.305  0.00  0.00    +0.144 C 
ATOM      8  C   UNL     1      -3.457  -7.409  33.467  0.00  0.00    +0.204 C 
ATOM      9  O   UNL     1      -2.855  -6.131  33.319  0.00  0.00    -0.420 OA
ATOM     10  H   UNL     1      -1.737  -4.078  31.826  0.00  0.00    +0.178 HD
ENDBRANCH   1   4
BRANCH   1  11
ATOM     11  O   UNL     1      -4.646  -2.481  31.311  0.00  0.00    -0.151 OA
BRANCH  11  12
ATOM     12  N   UNL     1      -4.464  -1.174  31.087  0.00  0.00    -0.188 NA
ATOM     13  H   UNL     1      -5.144  -0.639  31.627  0.00  0.00    +0.152 HD
ATOM     14  H   UNL     1      -4.588  -0.979  30.094  0.00  0.00    +0.152 HD
ENDBRANCH  11  12
ENDBRANCH   1  11
TORSDOF 3
