REMARK  Name = =
REMARK  4 active torsions:
REMARK  status: ('A' for Active; 'I' for Inactive)
REMARK    1  A    between atoms: N_1  and  C_7
REMARK    2  A    between atoms: N_1  and  S_17
REMARK    3  A    between atoms: S_17  and  O_20
REMARK    4  A    between atoms: O_20  and  N_21
REMARK                            x       y       z     vdW  Elec       q    Type
REMARK                         _______ _______ _______ _____ _____    ______ ____
ROOT
ATOM      1  N   UNL     1      -2.549  -5.402  30.844  0.00  0.00    -0.103 N 
ATOM      2  C   UNL     1      -3.093  -6.443  31.676  0.00  0.00    +0.308 C 
ATOM      3  N   UNL     1      -2.445  -7.453  32.154  0.00  0.00    -0.219 NA
ATOM      4  C   UNL     1      -3.304  -8.307  32.951  0.00  0.00    +0.177 C 
ATOM      5  C   UNL     1      -4.493  -7.411  33.209  0.00  0.00    +0.235 C 
ATOM      6  O   UNL     1      -4.415  -6.516  32.092  0.00  0.00    -0.446 OA
ENDROOT
BRANCH   1   7
ATOM      7  C   UNL     1      -1.460  -5.687  29.977  0.00  0.00    +0.161 C 
ATOM      8  C   UNL     1      -0.203  -5.892  30.487  0.00  0.00    +0.053 C 
ATOM      9  C   UNL     1       0.873  -6.172  29.655  0.00  0.00    +0.007 C 
ATOM     10  C   UNL     1       0.693  -6.249  28.284  0.00  0.00    +0.021 C 
ATOM     11  C   UNL     1      -0.578  -6.038  27.806  0.00  0.00    +0.100 C 
ATOM     12  N   UNL     1      -1.615  -5.767  28.632  0.00  0.00    -0.227 NA
ATOM     13  C   UNL     1       2.126  -6.372  30.217  0.00  0.00    +0.021 C 
ATOM     14  C   UNL     1       2.321  -6.299  31.582  0.00  0.00    +0.099 C 
ATOM     15  N   UNL     1       1.256  -6.027  32.341  0.00  0.00    -0.242 NA
ATOM     16  C   UNL     1       0.020  -5.824  31.853  0.00  0.00    +0.102 C 
ENDBRANCH   1   7
BRANCH   1  17
ATOM     17  S   UNL     1      -3.232  -3.827  30.921  0.00  0.00    +0.089 S 
ATOM     18  O   UNL     1      -2.283  -2.766  30.460  0.00  0.00    -0.050 OA
ATOM     19  O   UNL     1      -4.459  -3.805  30.076  0.00  0.00    -0.050 OA
BRANCH  17  20
ATOM     20  O   UNL     1      -3.686  -3.567  32.537  0.00  0.00    -0.151 OA
BRANCH  20  21
ATOM     21  N   UNL     1      -4.704  -2.698  32.523  0.00  0.00    -0.188 NA
ATOM     22  H   UNL     1      -5.008  -2.514  33.479  0.00  0.00    +0.152 HD
ATOM     23  H   UNL     1      -5.479  -3.091  31.990  0.00  0.00    +0.152 HD
ENDBRANCH  20  21
ENDBRANCH  17  20
ENDBRANCH   1  17
TORSDOF 4
