REMARK  Name = =
REMARK  5 active torsions:
REMARK  status: ('A' for Active; 'I' for Inactive)
REMARK    1  A    between atoms: C_8  and  C_22
REMARK    2  A    between atoms: N_11  and  S_17
REMARK    3  A    between atoms: S_17  and  O_20
REMARK    4  A    between atoms: O_20  and  N_21
REMARK    5  A    between atoms: C_22  and  O_24
REMARK                            x       y       z     vdW  Elec       q    Type
REMARK                         _______ _______ _______ _____ _____    ______ ____
ROOT
ATOM      1  C   UNL     1      -1.572  -6.001  29.871  0.00  0.00    +0.161 C 
ATOM      2  C   UNL     1      -0.560  -5.163  29.493  0.00  0.00    +0.053 C 
ATOM      3  C   UNL     1       0.468  -5.631  28.661  0.00  0.00    +0.007 C 
ATOM      4  C   UNL     1       0.447  -6.940  28.229  0.00  0.00    +0.021 C 
ATOM      5  C   UNL     1      -0.573  -7.773  28.613  0.00  0.00    +0.100 C 
ATOM      6  N   UNL     1      -1.531  -7.306  29.398  0.00  0.00    -0.227 NA
ATOM      7  C   UNL     1       1.498  -4.785  28.268  0.00  0.00    +0.017 C 
ATOM      8  C   UNL     1       1.529  -3.473  28.686  0.00  0.00    +0.086 C 
ATOM      9  N   UNL     1       0.543  -3.066  29.469  0.00  0.00    -0.246 NA
ATOM     10  C   UNL     1      -0.489  -3.848  29.886  0.00  0.00    +0.101 C 
ATOM     11  N   UNL     1      -2.635  -5.652  30.717  0.00  0.00    -0.103 N 
ATOM     12  C   UNL     1      -3.470  -4.536  30.791  0.00  0.00    +0.308 C 
ATOM     13  N   UNL     1      -3.168  -3.462  31.496  0.00  0.00    -0.219 NA
ATOM     14  C   UNL     1      -4.217  -2.484  31.378  0.00  0.00    +0.177 C 
ATOM     15  C   UNL     1      -5.383  -3.280  30.835  0.00  0.00    +0.235 C 
ATOM     16  O   UNL     1      -4.719  -4.339  30.179  0.00  0.00    -0.446 OA
ENDROOT
BRANCH  11  17
ATOM     17  S   UNL     1      -3.016  -6.851  31.996  0.00  0.00    +0.089 S 
ATOM     18  O   UNL     1      -4.450  -6.700  32.395  0.00  0.00    -0.050 OA
ATOM     19  O   UNL     1      -2.883  -8.203  31.357  0.00  0.00    -0.050 OA
BRANCH  17  20
ATOM     20  O   UNL     1      -1.971  -6.653  33.277  0.00  0.00    -0.151 OA
BRANCH  20  21
ATOM     21  N   UNL     1      -2.558  -5.854  34.207  0.00  0.00    -0.188 NA
ATOM     22  H   UNL     1      -1.924  -5.728  34.996  0.00  0.00    +0.152 HD
ATOM     23  H   UNL     1      -3.422  -6.288  34.532  0.00  0.00    +0.152 HD
ENDBRANCH  20  21
ENDBRANCH  17  20
ENDBRANCH  11  17
BRANCH   8  24
ATOM     24  C   UNL     1       2.631  -2.551  28.270  0.00  0.00    +0.150 C 
ATOM     25  C   UNL     1       2.213  -1.117  28.337  0.00  0.00    +0.038 C 
BRANCH  24  26
ATOM     26  O   UNL     1       3.080  -2.900  26.997  0.00  0.00    -0.378 OA
ATOM     27  H   UNL     1       3.794  -2.300  26.730  0.00  0.00    +0.211 HD
ENDBRANCH  24  26
ENDBRANCH   8  24
TORSDOF 5
