REMARK  Name = =
REMARK  7 active torsions:
REMARK  status: ('A' for Active; 'I' for Inactive)
REMARK    1  A    between atoms: C_1  and  N_28
REMARK    2  A    between atoms: C_5  and  C_11
REMARK    3  A    between atoms: C_8  and  C_39
REMARK    4  A    between atoms: N_28  and  S_34
REMARK    5  A    between atoms: S_34  and  O_37
REMARK    6  A    between atoms: O_37  and  N_38
REMARK    7  A    between atoms: C_39  and  O_41
REMARK                            x       y       z     vdW  Elec       q    Type
REMARK                         _______ _______ _______ _____ _____    ______ ____
ROOT
ATOM      1  C   UNL     1      -0.612  -4.905  29.564  0.00  0.00    +0.160 C 
ATOM      2  C   UNL     1      -1.724  -4.302  30.104  0.00  0.00    +0.053 C 
ATOM      3  C   UNL     1      -2.320  -3.178  29.564  0.00  0.00    +0.007 C 
ATOM      4  C   UNL     1      -1.746  -2.649  28.411  0.00  0.00    +0.015 C 
ATOM      5  C   UNL     1      -0.642  -3.253  27.879  0.00  0.00    +0.060 C 
ATOM      6  N   UNL     1      -0.101  -4.335  28.435  0.00  0.00    -0.233 NA
ATOM      7  C   UNL     1      -3.429  -2.599  30.135  0.00  0.00    +0.017 C 
ATOM      8  C   UNL     1      -3.972  -3.139  31.277  0.00  0.00    +0.086 C 
ATOM      9  N   UNL     1      -3.375  -4.235  31.791  0.00  0.00    -0.246 NA
ATOM     10  C   UNL     1      -2.290  -4.816  31.247  0.00  0.00    +0.101 C 
ENDROOT
BRANCH   5  11
ATOM     11  C   UNL     1      -0.029  -2.689  26.651  0.00  0.00    +0.040 C 
ATOM     12  C   UNL     1       0.865  -1.509  26.977  0.00  0.00    +0.006 C 
ATOM     13  C   UNL     1       1.351  -0.898  25.691  0.00  0.00    +0.000 C 
ATOM     14  C   UNL     1       2.820  -0.463  25.887  0.00  0.00    +0.000 C 
ATOM     15  C   UNL     1       3.749  -1.520  25.376  0.00  0.00    +0.005 C 
ATOM     16  C   UNL     1       4.618  -1.184  24.263  0.00  0.00    +0.057 C 
ATOM     17  C   UNL     1       6.063  -1.418  24.387  0.00  0.00    +0.120 C 
ATOM     18  O   UNL     1       6.358  -0.088  24.531  0.00  0.00    -0.356 OA
ATOM     19  C   UNL     1       5.080   0.208  24.026  0.00  0.00    +0.142 C 
ATOM     20  C   UNL     1       6.534  -2.350  25.438  0.00  0.00    +0.030 C 
ATOM     21  C   UNL     1       5.706  -2.351  26.702  0.00  0.00    +0.002 C 
ATOM     22  C   UNL     1       4.240  -2.492  26.379  0.00  0.00    +0.000 C 
ATOM     23  C   UNL     1       3.814  -3.910  26.197  0.00  0.00    +0.000 C 
ATOM     24  C   UNL     1       2.855  -4.123  25.038  0.00  0.00    +0.000 C 
ATOM     25  C   UNL     1       1.727  -3.198  25.125  0.00  0.00    +0.000 C 
ATOM     26  C   UNL     1       0.843  -3.693  25.982  0.00  0.00    +0.006 C 
ATOM     27  C   UNL     1       1.330  -1.877  24.524  0.00  0.00    +0.000 C 
ENDBRANCH   5  11
BRANCH   1  28
ATOM     28  N   UNL     1       0.004  -6.073  30.093  0.00  0.00    -0.103 N 
ATOM     29  C   UNL     1       0.873  -6.049  31.209  0.00  0.00    +0.308 C 
ATOM     30  N   UNL     1       0.548  -6.402  32.399  0.00  0.00    -0.219 NA
ATOM     31  C   UNL     1       1.681  -6.251  33.296  0.00  0.00    +0.177 C 
ATOM     32  C   UNL     1       2.853  -6.044  32.351  0.00  0.00    +0.235 C 
ATOM     33  O   UNL     1       2.194  -5.637  31.158  0.00  0.00    -0.446 OA
BRANCH  28  34
ATOM     34  S   UNL     1      -0.370  -7.576  29.279  0.00  0.00    +0.089 S 
ATOM     35  O   UNL     1      -1.272  -7.271  28.122  0.00  0.00    -0.050 OA
ATOM     36  O   UNL     1       0.919  -8.213  28.794  0.00  0.00    -0.050 OA
BRANCH  34  37
ATOM     37  O   UNL     1      -1.133  -8.561  30.399  0.00  0.00    -0.151 OA
BRANCH  37  38
ATOM     38  N   UNL     1      -2.425  -8.739  30.012  0.00  0.00    -0.188 NA
ATOM     39  H   UNL     1      -2.902  -9.338  30.686  0.00  0.00    +0.152 HD
ATOM     40  H   UNL     1      -2.447  -9.178  29.092  0.00  0.00    +0.152 HD
ENDBRANCH  37  38
ENDBRANCH  34  37
ENDBRANCH  28  34
ENDBRANCH   1  28
BRANCH   8  41
ATOM     41  C   UNL     1      -5.183  -2.541  31.933  0.00  0.00    +0.150 C 
ATOM     42  C   UNL     1      -5.515  -3.274  33.199  0.00  0.00    +0.038 C 
BRANCH  41  43
ATOM     43  O   UNL     1      -6.295  -2.590  31.095  0.00  0.00    -0.378 OA
ATOM     44  H   UNL     1      -6.099  -2.120  30.269  0.00  0.00    +0.211 HD
ENDBRANCH  41  43
ENDBRANCH   8  41
TORSDOF 7
