REMARK  Name = =
REMARK  6 active torsions:
REMARK  status: ('A' for Active; 'I' for Inactive)
REMARK    1  A    between atoms: C_1  and  C_16
REMARK    2  A    between atoms: C_16  and  N_26
REMARK    3  A    between atoms: N_26  and  P_27
REMARK    4  A    between atoms: P_27  and  N_29
REMARK    5  A    between atoms: P_27  and  N_30
REMARK    6  A    between atoms: C_35  and  C_38
REMARK                            x       y       z     vdW  Elec       q    Type
REMARK                         _______ _______ _______ _____ _____    ______ ____
ROOT
ATOM      1  C   UNL     1      53.113 157.222  29.032  0.00  0.00    +0.022 C 
ATOM      2  C   UNL     1      52.121 158.153  29.252  0.00  0.00    +0.046 C 
ATOM      3  C   UNL     1      52.486 159.418  29.665  0.00  0.00    +0.047 C 
ATOM      4  C   UNL     1      53.828 159.775  29.866  0.00  0.00    +0.058 C 
ATOM      5  N   UNL     1      54.360 161.025  30.281  0.00  0.00    -0.250 N 
ATOM      6  C   UNL     1      55.604 161.444  29.964  0.00  0.00    +0.172 C 
ATOM      7  N   UNL     1      55.730 162.650  30.528  0.00  0.00    -0.225 NA
ATOM      8  C   UNL     1      54.619 163.011  31.187  0.00  0.00    +0.113 C 
ATOM      9  C   UNL     1      53.717 161.951  31.030  0.00  0.00    +0.069 C 
ATOM     10  C   UNL     1      52.349 161.943  31.608  0.00  0.00    +0.115 C 
ATOM     11  N   UNL     1      51.334 161.506  30.672  0.00  0.00    -0.267 NA
ATOM     12  C   UNL     1      51.349 160.318  29.865  0.00  0.00    +0.201 C 
ATOM     13  O   UNL     1      50.308 159.982  29.255  0.00  0.00    -0.321 OA
ATOM     14  C   UNL     1      54.807 158.867  29.655  0.00  0.00    +0.015 C 
ATOM     15  C   UNL     1      54.428 157.591  29.236  0.00  0.00    +0.001 C 
ATOM     16  N   UNL     1      50.753 157.866  29.102  0.00  0.00    -0.311 N 
ATOM     17  C   UNL     1      49.766 158.391  30.021  0.00  0.00    +0.175 C 
ATOM     18  C   UNL     1      48.510 158.669  29.576  0.00  0.00    +0.020 C 
ATOM     19  C   UNL     1      47.544 159.179  30.429  0.00  0.00    +0.004 C 
ATOM     20  C   UNL     1      47.860 159.407  31.743  0.00  0.00    +0.049 C 
ATOM     21  C   UNL     1      49.133 159.123  32.187  0.00  0.00    -0.017 C 
ATOM     22  C   UNL     1      50.107 158.610  31.332  0.00  0.00    +0.077 C 
ATOM     23  H   UNL     1      51.244 162.273  30.006  0.00  0.00    +0.126 HD
ATOM     24  H   UNL     1      50.460 157.295  28.355  0.00  0.00    +0.149 HD
ENDROOT
BRANCH   1  25
ATOM     25  C   UNL     1      52.780 155.824  28.538  0.00  0.00    +0.134 C 
ATOM     26  N   UNL     1      51.483 155.448  28.966  0.00  0.00    -0.281 NA
ATOM     27  C   UNL     1      50.725 154.539  28.226  0.00  0.00    +0.075 C 
ATOM     28  C   UNL     1      50.578 154.865  26.785  0.00  0.00    +0.043 C 
ATOM     29  C   UNL     1      51.862 155.381  26.259  0.00  0.00    -0.022 C 
ATOM     30  C   UNL     1      52.874 155.823  27.070  0.00  0.00    +0.005 C 
ATOM     31  C   UNL     1      54.016 156.278  26.463  0.00  0.00    -0.002 C 
ATOM     32  C   UNL     1      54.156 156.297  25.090  0.00  0.00    -0.000 C 
ATOM     33  C   UNL     1      53.128 155.849  24.271  0.00  0.00    -0.000 C 
ATOM     34  C   UNL     1      51.987 155.394  24.864  0.00  0.00    -0.004 C 
ATOM     35  H   UNL     1      50.935 156.306  29.023  0.00  0.00    +0.125 HD
BRANCH  25  36
ATOM     36  N   UNL     1      53.749 154.960  29.162  0.00  0.00    -0.216 NA
ATOM     37  H   UNL     1      53.590 154.999  30.169  0.00  0.00    +0.134 HD
BRANCH  36  38
ATOM     38  P   UNL     1      53.744 153.313  28.706  0.00  0.00    +0.278 P 
ATOM     39  O   UNL     1      54.757 152.576  29.616  0.00  0.00    -0.270 OA
BRANCH  38  40
ATOM     40  N   UNL     1      54.183 152.977  27.073  0.00  0.00    -0.257 NA
ATOM     41  H   UNL     1      53.534 153.449  26.443  0.00  0.00    +0.128 HD
ATOM     42  H   UNL     1      54.144 151.971  26.911  0.00  0.00    +0.128 HD
ENDBRANCH  38  40
BRANCH  38  43
ATOM     43  N   UNL     1      52.194 152.604  29.109  0.00  0.00    -0.257 NA
ATOM     44  H   UNL     1      51.963 152.820  30.079  0.00  0.00    +0.128 HD
ATOM     45  H   UNL     1      52.241 151.592  28.988  0.00  0.00    +0.128 HD
ENDBRANCH  38  43
ENDBRANCH  36  38
ENDBRANCH  25  36
ENDBRANCH   1  25
BRANCH  20  46
ATOM     46  C   UNL     1      46.862 159.940  32.649  0.00  0.00    +0.242 C 
ATOM     47  O   UNL     1      45.667 159.548  32.585  0.00  0.00    -0.270 OA
ATOM     48  N   UNL     1      47.162 160.911  33.638  0.00  0.00    -0.325 N 
ATOM     49  H   UNL     1      48.081 161.252  33.731  0.00  0.00    +0.145 HD
ATOM     50  H   UNL     1      46.451 161.245  34.232  0.00  0.00    +0.145 HD
ENDBRANCH  20  46
TORSDOF 6
