REMARK  Name = =
REMARK  2 active torsions:
REMARK  status: ('A' for Active; 'I' for Inactive)
REMARK    1  A    between atoms: C_3  and  O_8
REMARK    2  A    between atoms: C_5  and  O_7
REMARK                            x       y       z     vdW  Elec       q    Type
REMARK                         _______ _______ _______ _____ _____    ______ ____
ROOT
ATOM      1  C   UNL     1      51.869 155.868  27.416  0.00  0.00    +0.006 C 
ATOM      2  C   UNL     1      51.961 154.760  26.605  0.00  0.00    +0.037 C 
ATOM      3  C   UNL     1      51.874 153.508  27.155  0.00  0.00    +0.137 C 
ATOM      4  C   UNL     1      51.693 153.360  28.525  0.00  0.00    +0.073 C 
ATOM      5  C   UNL     1      51.604 154.482  29.319  0.00  0.00    +0.137 C 
ATOM      6  C   UNL     1      51.690 155.752  28.782  0.00  0.00    +0.037 C 
ENDROOT
BRANCH   5   7
ATOM      7  O   UNL     1      51.425 154.338  30.685  0.00  0.00    -0.505 OA
ATOM      8  H   UNL     1      51.365 153.482  31.062  0.00  0.00    +0.292 HD
ENDBRANCH   5   7
BRANCH   3   9
ATOM      9  O   UNL     1      51.963 152.366  26.357  0.00  0.00    -0.505 OA
ATOM     10  H   UNL     1      52.085 152.449  25.432  0.00  0.00    +0.292 HD
ENDBRANCH   3   9
TORSDOF 2
