REMARK  Name = =
REMARK  3 active torsions:
REMARK  status: ('A' for Active; 'I' for Inactive)
REMARK    1  A    between atoms: N_1  and  C_19
REMARK    2  A    between atoms: C_21  and  O_26
REMARK    3  A    between atoms: C_23  and  O_25
REMARK                            x       y       z     vdW  Elec       q    Type
REMARK                         _______ _______ _______ _____ _____    ______ ____
ROOT
ATOM      1  N   UNL     1      53.119 155.719  27.025  0.00  0.00    -0.231 N 
ATOM      2  C   UNL     1      54.020 156.758  27.387  0.00  0.00    +0.091 C 
ATOM      3  C   UNL     1      54.934 157.476  26.627  0.00  0.00    +0.156 C 
ATOM      4  N   UNL     1      55.710 158.407  27.151  0.00  0.00    -0.227 NA
ATOM      5  C   UNL     1      55.608 158.672  28.478  0.00  0.00    +0.100 C 
ATOM      6  C   UNL     1      54.720 157.997  29.288  0.00  0.00    +0.022 C 
ATOM      7  C   UNL     1      53.908 157.024  28.751  0.00  0.00    +0.020 C 
ATOM      8  N   UNL     1      55.158 157.353  25.191  0.00  0.00    -0.214 N 
ATOM      9  C   UNL     1      54.976 156.190  24.397  0.00  0.00    +0.064 C 
ATOM     10  C   UNL     1      53.970 155.259  24.614  0.00  0.00    +0.068 C 
ATOM     11  C   UNL     1      53.888 154.202  23.733  0.00  0.00    +0.006 C 
ATOM     12  C   UNL     1      54.785 154.091  22.686  0.00  0.00    +0.000 C 
ATOM     13  C   UNL     1      55.784 155.023  22.482  0.00  0.00    +0.001 C 
ATOM     14  C   UNL     1      55.875 156.092  23.360  0.00  0.00    +0.015 C 
ATOM     15  C   UNL     1      52.973 155.175  25.694  0.00  0.00    +0.258 C 
ATOM     16  O   UNL     1      51.929 154.588  25.438  0.00  0.00    -0.269 OA
ATOM     17  C   UNL     1      55.604 158.500  24.521  0.00  0.00    +0.312 C 
ATOM     18  O   UNL     1      55.750 158.599  23.301  0.00  0.00    -0.264 OA
ENDROOT
BRANCH   1  19
ATOM     19  C   UNL     1      52.290 155.129  28.017  0.00  0.00    +0.065 C 
ATOM     20  C   UNL     1      52.330 153.782  28.286  0.00  0.00    +0.052 C 
ATOM     21  C   UNL     1      51.547 153.183  29.250  0.00  0.00    +0.138 C 
ATOM     22  C   UNL     1      50.688 153.984  29.968  0.00  0.00    +0.073 C 
ATOM     23  C   UNL     1      50.614 155.338  29.731  0.00  0.00    +0.138 C 
ATOM     24  C   UNL     1      51.413 155.907  28.759  0.00  0.00    +0.052 C 
BRANCH  23  25
ATOM     25  O   UNL     1      49.719 156.110  30.492  0.00  0.00    -0.505 OA
ATOM     26  H   UNL     1      49.187 155.701  31.146  0.00  0.00    +0.292 HD
ENDBRANCH  23  25
BRANCH  21  27
ATOM     27  O   UNL     1      51.625 151.796  29.490  0.00  0.00    -0.505 OA
ATOM     28  H   UNL     1      52.216 151.267  28.991  0.00  0.00    +0.292 HD
ENDBRANCH  21  27
ENDBRANCH   1  19
TORSDOF 3
