REMARK  Name = =
REMARK  5 active torsions:
REMARK  status: ('A' for Active; 'I' for Inactive)
REMARK    1  A    between atoms: N_1  and  C_19
REMARK    2  A    between atoms: C_20  and  C_25
REMARK    3  A    between atoms: C_21  and  O_33
REMARK    4  A    between atoms: C_23  and  O_32
REMARK    5  A    between atoms: C_27  and  O_31
REMARK                            x       y       z     vdW  Elec       q    Type
REMARK                         _______ _______ _______ _____ _____    ______ ____
ROOT
ATOM      1  N   UNL     1      52.796 154.578  27.336  0.00  0.00    -0.231 N 
ATOM      2  C   UNL     1      53.519 155.796  27.562  0.00  0.00    +0.091 C 
ATOM      3  C   UNL     1      54.168 156.628  26.654  0.00  0.00    +0.156 C 
ATOM      4  N   UNL     1      54.793 157.732  27.043  0.00  0.00    -0.227 NA
ATOM      5  C   UNL     1      54.817 158.081  28.340  0.00  0.00    +0.100 C 
ATOM      6  C   UNL     1      54.183 157.278  29.272  0.00  0.00    +0.022 C 
ATOM      7  C   UNL     1      53.525 156.125  28.897  0.00  0.00    +0.020 C 
ATOM      8  N   UNL     1      54.271 156.463  25.223  0.00  0.00    -0.214 N 
ATOM      9  C   UNL     1      54.269 155.244  24.493  0.00  0.00    +0.064 C 
ATOM     10  C   UNL     1      53.587 154.101  24.889  0.00  0.00    +0.068 C 
ATOM     11  C   UNL     1      53.678 153.002  24.067  0.00  0.00    +0.006 C 
ATOM     12  C   UNL     1      54.423 153.038  22.889  0.00  0.00    +0.000 C 
ATOM     13  C   UNL     1      55.094 154.190  22.518  0.00  0.00    +0.001 C 
ATOM     14  C   UNL     1      55.015 155.302  23.328  0.00  0.00    +0.015 C 
ATOM     15  C   UNL     1      52.772 153.867  26.098  0.00  0.00    +0.258 C 
ATOM     16  O   UNL     1      51.965 152.920  26.008  0.00  0.00    -0.269 OA
ATOM     17  C   UNL     1      54.396 157.631  24.434  0.00  0.00    +0.312 C 
ATOM     18  O   UNL     1      54.443 158.731  25.094  0.00  0.00    -0.264 OA
ENDROOT
BRANCH   1  19
ATOM     19  C   UNL     1      52.056 154.040  28.414  0.00  0.00    +0.066 C 
ATOM     20  C   UNL     1      51.314 154.896  29.185  0.00  0.00    +0.066 C 
ATOM     21  C   UNL     1      50.561 154.416  30.258  0.00  0.00    +0.139 C 
ATOM     22  C   UNL     1      50.563 153.056  30.552  0.00  0.00    +0.073 C 
ATOM     23  C   UNL     1      51.316 152.194  29.767  0.00  0.00    +0.138 C 
ATOM     24  C   UNL     1      52.045 152.684  28.719  0.00  0.00    +0.052 C 
BRANCH  20  25
ATOM     25  C   UNL     1      51.328 156.311  28.856  0.00  0.00    +0.088 C 
ATOM     26  C   UNL     1      51.371 157.213  29.898  0.00  0.00    +0.056 C 
ATOM     27  C   UNL     1      51.386 158.576  29.692  0.00  0.00    +0.137 C 
ATOM     28  C   UNL     1      51.358 159.055  28.391  0.00  0.00    +0.057 C 
ATOM     29  C   UNL     1      51.315 158.125  27.369  0.00  0.00    +0.102 C 
ATOM     30  N   UNL     1      51.301 156.791  27.613  0.00  0.00    -0.243 NA
BRANCH  27  31
ATOM     31  O   UNL     1      51.429 159.505  30.709  0.00  0.00    -0.505 OA
ATOM     32  H   UNL     1      51.449 159.222  31.602  0.00  0.00    +0.292 HD
ENDBRANCH  27  31
ENDBRANCH  20  25
BRANCH  23  33
ATOM     33  O   UNL     1      51.317 150.822  30.061  0.00  0.00    -0.505 OA
ATOM     34  H   UNL     1      50.814 150.497  30.781  0.00  0.00    +0.292 HD
ENDBRANCH  23  33
BRANCH  21  35
ATOM     35  O   UNL     1      49.808 155.273  31.043  0.00  0.00    -0.505 OA
ATOM     36  H   UNL     1      49.797 156.191  30.857  0.00  0.00    +0.292 HD
ENDBRANCH  21  35
ENDBRANCH   1  19
TORSDOF 5
