REMARK  Name = =
REMARK  3 active torsions:
REMARK  status: ('A' for Active; 'I' for Inactive)
REMARK    1  A    between atoms: C_1  and  C_13
REMARK    2  A    between atoms: C_4  and  C_27
REMARK    3  A    between atoms: C_13  and  C_24
REMARK                            x       y       z     vdW  Elec       q    Type
REMARK                         _______ _______ _______ _____ _____    ______ ____
ROOT
ATOM      1  C   UNL     1     -11.943 -42.565  28.844  0.00  0.00    +0.233 C 
ATOM      2  O   UNL     1     -11.091 -41.715  28.371  0.00  0.00    -0.274 OA
ATOM      3  N   UNL     1     -13.217 -42.533  28.278  0.00  0.00    -0.276 N 
ATOM      4  C   UNL     1     -14.359 -43.331  28.576  0.00  0.00    +0.080 C 
ATOM      5  C   UNL     1     -15.432 -43.286  27.519  0.00  0.00    +0.046 C 
ATOM      6  C   UNL     1     -14.850 -43.236  26.172  0.00  0.00    -0.023 C 
ATOM      7  C   UNL     1     -13.836 -42.307  25.981  0.00  0.00    -0.006 C 
ATOM      8  C   UNL     1     -13.240 -42.145  24.775  0.00  0.00    -0.003 C 
ATOM      9  C   UNL     1     -13.670 -42.950  23.701  0.00  0.00    -0.000 C 
ATOM     10  C   UNL     1     -14.674 -43.876  23.879  0.00  0.00    -0.000 C 
ATOM     11  C   UNL     1     -15.274 -44.030  25.113  0.00  0.00    -0.004 C 
ATOM     12  C   UNL     1     -13.435 -41.536  27.181  0.00  0.00    +0.120 C 
ENDROOT
BRANCH   1  13
ATOM     13  C   UNL     1     -11.414 -43.419  29.905  0.00  0.00    +0.137 C 
ATOM     14  C   UNL     1      -9.915 -43.219  30.103  0.00  0.00    +0.020 C 
ATOM     15  C   UNL     1      -9.519 -44.221  31.199  0.00  0.00    +0.019 C 
ATOM     16  C   UNL     1      -9.967 -43.673  32.537  0.00  0.00    +0.004 C 
ATOM     17  C   UNL     1     -11.012 -42.629  32.272  0.00  0.00    +0.001 C 
ATOM     18  C   UNL     1     -12.034 -43.111  31.241  0.00  0.00    +0.017 C 
ATOM     19  C   UNL     1      -8.049 -44.455  31.164  0.00  0.00    -0.045 C 
ATOM     20  C   UNL     1      -7.583 -45.505  31.807  0.00  0.00    -0.009 C 
ATOM     21  C   UNL     1      -7.128 -43.568  30.448  0.00  0.00    +0.022 C 
ATOM     22  C   UNL     1      -7.694 -43.032  29.158  0.00  0.00    +0.004 C 
ATOM     23  C   UNL     1      -9.101 -43.592  28.903  0.00  0.00    +0.002 C 
BRANCH  13  24
ATOM     24  C   UNL     1     -11.631 -44.848  29.525  0.00  0.00    +0.227 C 
ATOM     25  O   UNL     1     -12.120 -45.692  30.348  0.00  0.00    -0.275 OA
ATOM     26  N   UNL     1     -11.305 -45.328  28.247  0.00  0.00    -0.328 N 
ATOM     27  H   UNL     1     -10.925 -44.718  27.574  0.00  0.00    +0.145 HD
ATOM     28  H   UNL     1     -11.457 -46.275  28.023  0.00  0.00    +0.145 HD
ENDBRANCH  13  24
ENDBRANCH   1  13
BRANCH   4  29
ATOM     29  C   UNL     1     -15.042 -42.937  29.841  0.00  0.00    +0.019 C 
ATOM     30  C   UNL     1     -14.636 -43.239  31.054  0.00  0.00    +0.002 C 
ATOM     31  C   UNL     1     -15.561 -42.681  32.051  0.00  0.00    +0.000 C 
ATOM     32  C   UNL     1     -16.526 -41.802  31.329  0.00  0.00    +0.000 C 
ATOM     33  C   UNL     1     -16.307 -42.162  29.877  0.00  0.00    +0.002 C 
ENDBRANCH   4  29
TORSDOF 3
