REMARK  Name = =
REMARK  0 active torsions:
REMARK  status: ('A' for Active; 'I' for Inactive)
REMARK                            x       y       z     vdW  Elec       q    Type
REMARK                         _______ _______ _______ _____ _____    ______ ____
ROOT
ATOM      1  O   UNL     1      -3.981  -3.624  31.000  0.00  0.00    -0.448 OA
ATOM      2  C   UNL     1      -3.746  -5.000  31.273  0.00  0.00    +0.209 C 
ATOM      3  C   UNL     1      -2.665  -5.339  30.249  0.00  0.00    +0.059 C 
ATOM      4  C   UNL     1      -1.794  -4.086  30.351  0.00  0.00    +0.113 C 
ATOM      5  C   UNL     1      -2.854  -3.047  30.430  0.00  0.00    +0.317 C 
ATOM      6  O   UNL     1      -2.799  -1.847  30.064  0.00  0.00    -0.250 OA
ENDROOT
TORSDOF 0
