REMARK  Name = =
REMARK  1 active torsions:
REMARK  status: ('A' for Active; 'I' for Inactive)
REMARK    1  A    between atoms: C_2  and  C_7
REMARK                            x       y       z     vdW  Elec       q    Type
REMARK                         _______ _______ _______ _____ _____    ______ ____
ROOT
ATOM      1  O   UNL     1      -3.203  -4.052  31.643  0.00  0.00    -0.444 OA
ATOM      2  C   UNL     1      -2.494  -5.216  31.350  0.00  0.00    +0.228 C 
ATOM      3  C   UNL     1      -2.125  -5.066  29.886  0.00  0.00    +0.063 C 
ATOM      4  C   UNL     1      -3.032  -4.014  29.319  0.00  0.00    +0.114 C 
ATOM      5  C   UNL     1      -3.690  -3.432  30.503  0.00  0.00    +0.317 C 
ATOM      6  O   UNL     1      -4.562  -2.510  30.465  0.00  0.00    -0.250 OA
ENDROOT
BRANCH   2   7
ATOM      7  C   UNL     1      -3.274  -6.448  31.538  0.00  0.00    +0.198 A 
ATOM      8  N   UNL     1      -3.288  -7.492  30.696  0.00  0.00    -0.109 NA
ATOM      9  N   UNL     1      -4.107  -8.386  31.226  0.00  0.00    -0.023 NA
ATOM     10  N   UNL     1      -4.597  -7.929  32.367  0.00  0.00    -0.047 NA
ATOM     11  N   UNL     1      -4.088  -6.735  32.566  0.00  0.00    -0.239 N 
ATOM     12  H   UNL     1      -4.272  -6.151  33.337  0.00  0.00    +0.192 HD
ENDBRANCH   2   7
TORSDOF 1
