REMARK  Name = =
REMARK  2 active torsions:
REMARK  status: ('A' for Active; 'I' for Inactive)
REMARK    1  A    between atoms: C_2  and  N_7
REMARK    2  A    between atoms: C_2  and  C_13
REMARK                            x       y       z     vdW  Elec       q    Type
REMARK                         _______ _______ _______ _____ _____    ______ ____
ROOT
ATOM      1  O   UNL     1      -2.463  -7.745  31.676  0.00  0.00    -0.431 OA
ATOM      2  C   UNL     1      -1.608  -6.828  31.026  0.00  0.00    +0.255 C 
ATOM      3  C   UNL     1      -2.353  -5.602  30.741  0.00  0.00    +0.080 C 
ATOM      4  C   UNL     1      -3.824  -5.988  31.025  0.00  0.00    +0.116 C 
ATOM      5  C   UNL     1      -3.703  -7.169  31.903  0.00  0.00    +0.319 C 
ATOM      6  O   UNL     1      -4.580  -7.561  32.703  0.00  0.00    -0.250 OA
ENDROOT
BRANCH   2   7
ATOM      7  N   UNL     1      -0.421  -6.742  31.810  0.00  0.00    -0.228 N 
ATOM      8  C   UNL     1      -0.172  -7.108  33.177  0.00  0.00    +0.307 C 
ATOM      9  O   UNL     1      -1.067  -7.012  34.044  0.00  0.00    -0.252 OA
ATOM     10  N   UNL     1       1.150  -7.555  33.301  0.00  0.00    -0.287 N 
ATOM     11  C   UNL     1       1.886  -7.070  32.160  0.00  0.00    +0.113 C 
ATOM     12  C   UNL     1       0.861  -6.346  31.291  0.00  0.00    +0.120 C 
ATOM     13  H   UNL     1       1.511  -8.102  34.035  0.00  0.00    +0.151 HD
ENDBRANCH   2   7
BRANCH   2  14
ATOM     14  C   UNL     1      -1.261  -7.480  29.707  0.00  0.00    +0.213 A 
ATOM     15  N   UNL     1      -0.806  -8.767  29.510  0.00  0.00    -0.108 NA
ATOM     16  N   UNL     1      -0.707  -8.893  28.210  0.00  0.00    -0.023 NA
ATOM     17  N   UNL     1      -1.048  -7.823  27.632  0.00  0.00    -0.047 NA
ATOM     18  N   UNL     1      -1.419  -6.883  28.542  0.00  0.00    -0.238 N 
ATOM     19  H   UNL     1      -1.734  -5.966  28.370  0.00  0.00    +0.192 HD
ENDBRANCH   2  14
TORSDOF 2
