REMARK  Name = =
REMARK  5 active torsions:
REMARK  status: ('A' for Active; 'I' for Inactive)
REMARK    1  A    between atoms: C_2  and  N_7
REMARK    2  A    between atoms: C_2  and  C_13
REMARK    3  A    between atoms: C_4  and  N_18
REMARK    4  A    between atoms: N_18  and  C_19
REMARK    5  A    between atoms: N_18  and  N_21
REMARK                            x       y       z     vdW  Elec       q    Type
REMARK                         _______ _______ _______ _____ _____    ______ ____
ROOT
ATOM      1  O   UNL     1      -0.717  -6.400  29.270  0.00  0.00    -0.430 OA
ATOM      2  C   UNL     1      -0.360  -7.742  29.303  0.00  0.00    +0.260 C 
ATOM      3  C   UNL     1       0.866  -7.705  30.214  0.00  0.00    +0.101 C 
ATOM      4  C   UNL     1       0.502  -6.611  31.207  0.00  0.00    +0.198 C 
ATOM      5  C   UNL     1      -0.689  -6.007  30.621  0.00  0.00    +0.338 C 
ATOM      6  O   UNL     1      -1.536  -5.265  31.233  0.00  0.00    -0.248 OA
ENDROOT
BRANCH   2   7
ATOM      7  N   UNL     1      -0.048  -8.339  28.046  0.00  0.00    -0.205 N 
ATOM      8  C   UNL     1      -0.020  -9.768  27.840  0.00  0.00    +0.314 C 
ATOM      9  O   UNL     1      -0.323 -10.669  28.718  0.00  0.00    -0.252 OA
ATOM     10  N   UNL     1       0.388 -10.076  26.540  0.00  0.00    -0.266 N 
ATOM     11  C   UNL     1       0.719  -8.840  25.855  0.00  0.00    +0.082 C 
ATOM     12  C   UNL     1       0.315  -7.729  26.794  0.00  0.00    +0.088 C 
ATOM     13  H   UNL     1       0.442 -10.980  26.153  0.00  0.00    +0.157 HD
ENDBRANCH   2   7
BRANCH   2  14
ATOM     14  C   UNL     1      -1.466  -8.509  29.944  0.00  0.00    +0.213 A 
ATOM     15  N   UNL     1      -2.727  -8.485  29.489  0.00  0.00    -0.108 NA
ATOM     16  N   UNL     1      -3.390  -9.290  30.301  0.00  0.00    -0.023 NA
ATOM     17  N   UNL     1      -2.573  -9.774  31.202  0.00  0.00    -0.047 NA
ATOM     18  N   UNL     1      -1.351  -9.316  31.019  0.00  0.00    -0.238 N 
ATOM     19  H   UNL     1      -0.543  -9.516  31.544  0.00  0.00    +0.192 HD
ENDBRANCH   2  14
BRANCH   4  20
ATOM     20  N   UNL     1       1.569  -5.608  31.237  0.00  0.00    -0.193 N 
BRANCH  20  21
ATOM     21  C   UNL     1       1.676  -4.756  30.131  0.00  0.00    +0.295 C 
ATOM     22  O   UNL     1       2.645  -3.868  30.169  0.00  0.00    -0.194 OA
ENDBRANCH  20  21
BRANCH  20  23
ATOM     23  N   UNL     1       2.393  -5.538  32.310  0.00  0.00    -0.176 NA
ATOM     24  C   UNL     1       2.723  -4.621  33.088  0.00  0.00    +0.140 C 
ENDBRANCH  20  23
ENDBRANCH   4  20
TORSDOF 5
