REMARK  Name = =
REMARK  5 active torsions:
REMARK  status: ('A' for Active; 'I' for Inactive)
REMARK    1  A    between atoms: C_2  and  N_7
REMARK    2  A    between atoms: C_2  and  C_13
REMARK    3  A    between atoms: C_4  and  N_18
REMARK    4  A    between atoms: N_18  and  N_21
REMARK    5  A    between atoms: C_22  and  S_23
REMARK                            x       y       z     vdW  Elec       q    Type
REMARK                         _______ _______ _______ _____ _____    ______ ____
ROOT
ATOM      1  O   UNL     1       0.040  -8.036  30.830  0.00  0.00    -0.430 OA
ATOM      2  C   UNL     1      -0.966  -7.025  30.999  0.00  0.00    +0.257 C 
ATOM      3  C   UNL     1      -0.417  -6.266  32.179  0.00  0.00    +0.102 C 
ATOM      4  C   UNL     1       1.021  -6.679  32.374  0.00  0.00    +0.203 C 
ATOM      5  C   UNL     1       1.256  -7.513  31.168  0.00  0.00    +0.339 C 
ATOM      6  O   UNL     1       2.392  -7.652  30.631  0.00  0.00    -0.248 OA
ENDROOT
BRANCH   2   7
ATOM      7  N   UNL     1      -2.234  -7.654  31.236  0.00  0.00    -0.228 N 
ATOM      8  C   UNL     1      -3.460  -7.162  31.770  0.00  0.00    +0.307 C 
ATOM      9  O   UNL     1      -3.532  -6.213  32.586  0.00  0.00    -0.252 OA
ATOM     10  N   UNL     1      -4.546  -7.914  31.228  0.00  0.00    -0.287 N 
ATOM     11  C   UNL     1      -3.926  -8.816  30.280  0.00  0.00    +0.113 C 
ATOM     12  C   UNL     1      -2.550  -9.057  30.925  0.00  0.00    +0.120 C 
ATOM     13  H   UNL     1      -5.502  -7.837  31.449  0.00  0.00    +0.151 HD
ENDBRANCH   2   7
BRANCH   2  14
ATOM     14  C   UNL     1      -0.969  -6.194  29.782  0.00  0.00    +0.213 A 
ATOM     15  N   UNL     1      -0.477  -6.521  28.589  0.00  0.00    -0.108 NA
ATOM     16  N   UNL     1      -0.677  -5.487  27.758  0.00  0.00    -0.023 NA
ATOM     17  N   UNL     1      -1.293  -4.510  28.419  0.00  0.00    -0.047 NA
ATOM     18  N   UNL     1      -1.466  -4.964  29.671  0.00  0.00    -0.238 N 
ATOM     19  H   UNL     1      -1.897  -4.461  30.400  0.00  0.00    +0.192 HD
ENDBRANCH   2  14
BRANCH   4  20
ATOM     20  N   UNL     1       1.955  -5.587  32.401  0.00  0.00    -0.163 N 
ATOM     21  C   UNL     1       2.000  -4.645  31.355  0.00  0.00    +0.324 C 
ATOM     22  O   UNL     1       2.779  -3.673  31.346  0.00  0.00    -0.263 OA
BRANCH  20  23
ATOM     23  N   UNL     1       2.864  -5.443  33.475  0.00  0.00    -0.164 NA
ATOM     24  C   UNL     1       2.915  -4.356  34.140  0.00  0.00    +0.178 C 
BRANCH  24  25
ATOM     25  S   UNL     1       4.021  -4.097  35.493  0.00  0.00    +0.063 S 
ATOM     26  O   UNL     1       4.131  -2.613  35.805  0.00  0.00    -0.254 OA
ATOM     27  H   UNL     1       5.250  -4.580  35.167  0.00  0.00    +0.145 HD
ENDBRANCH  24  25
ENDBRANCH  20  23
ENDBRANCH   4  20
TORSDOF 5
