REMARK  Name = =
REMARK  6 active torsions:
REMARK  status: ('A' for Active; 'I' for Inactive)
REMARK    1  A    between atoms: C_2  and  N_7
REMARK    2  A    between atoms: C_2  and  C_20
REMARK    3  A    between atoms: C_3  and  C_13
REMARK    4  A    between atoms: C_4  and  N_25
REMARK    5  A    between atoms: N_25  and  N_28
REMARK    6  A    between atoms: C_29  and  S_30
REMARK                            x       y       z     vdW  Elec       q    Type
REMARK                         _______ _______ _______ _____ _____    ______ ____
ROOT
ATOM      1  O   UNL     1       1.034  -8.384  30.121  0.00  0.00    -0.430 OA
ATOM      2  C   UNL     1       0.778  -7.240  29.245  0.00  0.00    +0.260 C 
ATOM      3  C   UNL     1       0.282  -6.269  30.235  0.00  0.00    +0.116 C 
ATOM      4  C   UNL     1      -0.469  -7.031  31.310  0.00  0.00    +0.207 C 
ATOM      5  C   UNL     1       0.083  -8.411  31.110  0.00  0.00    +0.339 C 
ATOM      6  O   UNL     1      -0.253  -9.455  31.735  0.00  0.00    -0.248 OA
ENDROOT
BRANCH   2   7
ATOM      7  N   UNL     1      -0.038  -7.648  28.172  0.00  0.00    -0.228 N 
ATOM      8  C   UNL     1      -1.338  -8.193  28.207  0.00  0.00    +0.307 C 
ATOM      9  O   UNL     1      -2.059  -8.506  29.212  0.00  0.00    -0.252 OA
ATOM     10  N   UNL     1      -1.853  -8.399  26.902  0.00  0.00    -0.287 N 
ATOM     11  C   UNL     1      -0.748  -8.303  26.001  0.00  0.00    +0.113 C 
ATOM     12  C   UNL     1       0.333  -7.586  26.763  0.00  0.00    +0.120 C 
ATOM     13  H   UNL     1      -2.792  -8.574  26.663  0.00  0.00    +0.151 HD
ENDBRANCH   2   7
BRANCH   3  14
ATOM     14  C   UNL     1      -0.353  -5.043  29.781  0.00  0.00    -0.015 C 
ATOM     15  C   UNL     1       0.272  -3.800  29.910  0.00  0.00    -0.003 C 
ATOM     16  C   UNL     1      -0.293  -2.613  29.514  0.00  0.00    +0.011 C 
ATOM     17  C   UNL     1      -1.544  -2.625  28.954  0.00  0.00    +0.058 C 
ATOM     18  C   UNL     1      -2.205  -3.824  28.805  0.00  0.00    +0.011 C 
ATOM     19  C   UNL     1      -1.605  -5.020  29.218  0.00  0.00    -0.003 C 
ATOM     20 CL   UNL     1      -2.268  -1.106  28.420  0.00  0.00    -0.082 Cl
ENDBRANCH   3  14
BRANCH   2  21
ATOM     21  C   UNL     1       2.131  -6.781  28.769  0.00  0.00    +0.213 A 
ATOM     22  N   UNL     1       2.476  -5.490  28.737  0.00  0.00    -0.108 NA
ATOM     23  N   UNL     1       3.717  -5.426  28.285  0.00  0.00    -0.023 NA
ATOM     24  N   UNL     1       4.149  -6.645  28.037  0.00  0.00    -0.047 NA
ATOM     25  N   UNL     1       3.168  -7.481  28.336  0.00  0.00    -0.238 N 
ATOM     26  H   UNL     1       3.203  -8.461  28.251  0.00  0.00    +0.192 HD
ENDBRANCH   2  21
BRANCH   4  27
ATOM     27  N   UNL     1      -0.087  -6.625  32.649  0.00  0.00    -0.163 N 
ATOM     28  C   UNL     1       1.241  -6.395  33.051  0.00  0.00    +0.324 C 
ATOM     29  O   UNL     1       1.577  -6.037  34.176  0.00  0.00    -0.263 OA
BRANCH  27  30
ATOM     30  N   UNL     1      -1.157  -6.476  33.582  0.00  0.00    -0.164 NA
ATOM     31  C   UNL     1      -2.335  -6.694  33.103  0.00  0.00    +0.178 C 
BRANCH  31  32
ATOM     32  S   UNL     1      -3.834  -6.578  34.008  0.00  0.00    +0.063 S 
ATOM     33  O   UNL     1      -4.525  -5.263  33.652  0.00  0.00    -0.254 OA
ATOM     34  H   UNL     1      -3.566  -6.607  35.341  0.00  0.00    +0.145 HD
ENDBRANCH  31  32
ENDBRANCH  27  30
ENDBRANCH   4  27
TORSDOF 6
