REMARK  Name = =
REMARK  7 active torsions:
REMARK  status: ('A' for Active; 'I' for Inactive)
REMARK    1  A    between atoms: C_2  and  N_14
REMARK    2  A    between atoms: C_2  and  C_26
REMARK    3  A    between atoms: C_3  and  C_7
REMARK    4  A    between atoms: C_4  and  N_31
REMARK    5  A    between atoms: N_17  and  N_20
REMARK    6  A    between atoms: N_31  and  N_34
REMARK    7  A    between atoms: C_35  and  S_36
REMARK                            x       y       z     vdW  Elec       q    Type
REMARK                         _______ _______ _______ _____ _____    ______ ____
ROOT
ATOM      1  O   UNL     1       1.650  -6.576  30.119  0.00  0.00    -0.430 OA
ATOM      2  C   UNL     1       1.322  -6.601  28.740  0.00  0.00    +0.260 C 
ATOM      3  C   UNL     1       0.848  -5.287  28.365  0.00  0.00    +0.116 C 
ATOM      4  C   UNL     1       0.565  -4.608  29.790  0.00  0.00    +0.207 C 
ATOM      5  C   UNL     1       1.602  -5.228  30.526  0.00  0.00    +0.339 C 
ATOM      6  O   UNL     1       2.375  -4.722  31.393  0.00  0.00    -0.248 OA
ENDROOT
BRANCH   3   7
ATOM      7  C   UNL     1       1.712  -4.376  27.617  0.00  0.00    -0.015 C 
ATOM      8  C   UNL     1       2.986  -4.051  28.020  0.00  0.00    -0.003 C 
ATOM      9  C   UNL     1       3.789  -3.157  27.295  0.00  0.00    +0.011 C 
ATOM     10  C   UNL     1       3.316  -2.580  26.156  0.00  0.00    +0.058 C 
ATOM     11  C   UNL     1       2.064  -2.887  25.745  0.00  0.00    +0.011 C 
ATOM     12  C   UNL     1       1.281  -3.765  26.457  0.00  0.00    -0.003 C 
ATOM     13 CL   UNL     1       4.284  -1.440  25.208  0.00  0.00    -0.082 Cl
ENDBRANCH   3   7
BRANCH   2  14
ATOM     14  N   UNL     1       2.366  -7.247  27.973  0.00  0.00    -0.226 N 
ATOM     15  C   UNL     1       2.236  -7.875  26.696  0.00  0.00    +0.323 C 
ATOM     16  O   UNL     1       1.437  -7.637  25.786  0.00  0.00    -0.251 OA
ATOM     17  N   UNL     1       3.260  -8.907  26.626  0.00  0.00    -0.204 N 
ATOM     18  C   UNL     1       4.394  -8.336  27.297  0.00  0.00    +0.135 C 
ATOM     19  C   UNL     1       3.729  -7.468  28.353  0.00  0.00    +0.122 C 
BRANCH  17  20
ATOM     20  N   UNL     1       3.179 -10.172  26.049  0.00  0.00    -0.201 NA
ATOM     21  C   UNL     1       2.482 -11.067  26.997  0.00  0.00    +0.092 C 
ATOM     22  C   UNL     1       2.589 -12.502  26.645  0.00  0.00    +0.019 C 
ATOM     23  C   UNL     1       4.028 -12.976  26.517  0.00  0.00    +0.003 C 
ATOM     24  C   UNL     1       4.957 -11.793  26.647  0.00  0.00    +0.019 C 
ATOM     25  C   UNL     1       4.482 -10.694  25.728  0.00  0.00    +0.092 C 
ENDBRANCH  17  20
ENDBRANCH   2  14
BRANCH   2  26
ATOM     26  C   UNL     1       0.100  -7.537  28.629  0.00  0.00    +0.213 A 
ATOM     27  N   UNL     1      -0.896  -7.325  27.769  0.00  0.00    -0.108 NA
ATOM     28  N   UNL     1      -1.760  -8.319  27.915  0.00  0.00    -0.023 NA
ATOM     29  N   UNL     1      -1.282  -9.111  28.848  0.00  0.00    -0.047 NA
ATOM     30  N   UNL     1      -0.123  -8.654  29.316  0.00  0.00    -0.238 N 
ATOM     31  H   UNL     1       0.443  -9.054  30.015  0.00  0.00    +0.192 HD
ENDBRANCH   2  26
BRANCH   4  32
ATOM     32  N   UNL     1      -0.771  -5.027  30.219  0.00  0.00    -0.163 N 
ATOM     33  C   UNL     1      -0.999  -5.690  31.455  0.00  0.00    +0.324 C 
ATOM     34  O   UNL     1      -2.111  -6.104  31.767  0.00  0.00    -0.263 OA
BRANCH  32  35
ATOM     35  N   UNL     1      -1.858  -4.832  29.403  0.00  0.00    -0.164 NA
ATOM     36  C   UNL     1      -2.675  -3.918  29.316  0.00  0.00    +0.178 C 
BRANCH  36  37
ATOM     37  S   UNL     1      -2.768  -2.450  30.238  0.00  0.00    +0.063 S 
ATOM     38  O   UNL     1      -2.941  -1.244  29.307  0.00  0.00    -0.254 OA
ATOM     39  H   UNL     1      -1.624  -2.300  30.958  0.00  0.00    +0.145 HD
ENDBRANCH  36  37
ENDBRANCH  32  35
ENDBRANCH   4  32
TORSDOF 7
