REMARK  Name = =
REMARK  0 active torsions:
REMARK  status: ('A' for Active; 'I' for Inactive)
REMARK                            x       y       z     vdW  Elec       q    Type
REMARK                         _______ _______ _______ _____ _____    ______ ____
ROOT
ATOM      1  C   UNL     1      -0.275  -3.679  30.347  0.00  0.00    +0.045 C 
ATOM      2  C   UNL     1      -1.505  -3.564  29.862  0.00  0.00    +0.045 C 
ATOM      3  C   UNL     1      -1.713  -3.323  28.450  0.00  0.00    +0.196 C 
ATOM      4  O   UNL     1      -2.895  -3.221  28.032  0.00  0.00    -0.287 OA
ATOM      5  C   UNL     1      -0.554  -3.206  27.552  0.00  0.00    +0.045 C 
ATOM      6  C   UNL     1       0.668  -3.323  28.045  0.00  0.00    +0.045 C 
ATOM      7  C   UNL     1       0.901  -3.565  29.463  0.00  0.00    +0.196 C 
ATOM      8  O   UNL     1       2.075  -3.671  29.902  0.00  0.00    -0.287 OA
ENDROOT
TORSDOF 0
