REMARK  Name = =
REMARK  2 active torsions:
REMARK  status: ('A' for Active; 'I' for Inactive)
REMARK    1  A    between atoms: C_2  and  C_9
REMARK    2  A    between atoms: C_9  and  C_11
REMARK                            x       y       z     vdW  Elec       q    Type
REMARK                         _______ _______ _______ _____ _____    ______ ____
ROOT
ATOM      1  C   UNL     1      -0.338  -4.059  30.204  0.00  0.00    +0.039 C 
ATOM      2  C   UNL     1      -1.622  -4.149  29.925  0.00  0.00    +0.053 C 
ATOM      3  C   UNL     1      -2.060  -3.412  28.706  0.00  0.00    +0.191 C 
ATOM      4  O   UNL     1      -3.305  -3.463  28.387  0.00  0.00    -0.287 OA
ATOM      5  C   UNL     1      -1.149  -2.650  27.880  0.00  0.00    +0.024 C 
ATOM      6  C   UNL     1       0.129  -2.594  28.201  0.00  0.00    +0.098 C 
ATOM      7  C   UNL     1       0.599  -3.294  29.379  0.00  0.00    +0.177 C 
ATOM      8  O   UNL     1       1.804  -3.255  29.702  0.00  0.00    -0.291 OA
ENDROOT
BRANCH   2   9
ATOM      9  C   UNL     1      -2.581  -4.950  30.635  0.00  0.00    +0.200 C 
ATOM     10  O   UNL     1      -3.720  -4.345  30.834  0.00  0.00    -0.213 OA
BRANCH   9  11
ATOM     11  C   UNL     1      -2.453  -6.289  31.142  0.00  0.00    +0.012 C 
ATOM     12  C   UNL     1      -3.283  -6.619  32.251  0.00  0.00    -0.002 C 
ATOM     13  C   UNL     1      -3.284  -7.895  32.741  0.00  0.00    -0.000 C 
ATOM     14  C   UNL     1      -2.522  -8.908  32.230  0.00  0.00    -0.000 C 
ATOM     15  C   UNL     1      -1.719  -8.596  31.158  0.00  0.00    -0.000 C 
ATOM     16  C   UNL     1      -1.702  -7.301  30.638  0.00  0.00    -0.002 C 
ENDBRANCH   9  11
ENDBRANCH   2   9
TORSDOF 2
