REMARK  Name = =
REMARK  3 active torsions:
REMARK  status: ('A' for Active; 'I' for Inactive)
REMARK    1  A    between atoms: C_1  and  C_17
REMARK    2  A    between atoms: C_6  and  C_7
REMARK    3  A    between atoms: C_17  and  C_20
REMARK                            x       y       z     vdW  Elec       q    Type
REMARK                         _______ _______ _______ _____ _____    ______ ____
ROOT
ATOM      1  C   UNL     1      -1.873  -6.299  30.882  0.00  0.00    +0.013 C 
ATOM      2  C   UNL     1      -2.333  -7.347  31.680  0.00  0.00    -0.001 C 
ATOM      3  C   UNL     1      -1.938  -8.631  31.414  0.00  0.00    -0.000 C 
ATOM      4  C   UNL     1      -1.094  -8.917  30.380  0.00  0.00    +0.000 C 
ATOM      5  C   UNL     1      -0.613  -7.902  29.563  0.00  0.00    +0.001 C 
ATOM      6  C   UNL     1      -1.013  -6.599  29.825  0.00  0.00    +0.016 C 
ENDROOT
BRANCH   6   7
ATOM      7  C   UNL     1      -0.517  -5.568  28.924  0.00  0.00    +0.081 C 
ATOM      8  N   UNL     1      -1.286  -4.652  28.300  0.00  0.00    -0.242 NA
ATOM      9  C   UNL     1      -0.826  -3.696  27.494  0.00  0.00    +0.118 C 
ATOM     10  C   UNL     1       0.521  -3.575  27.232  0.00  0.00    +0.102 C 
ATOM     11  N   UNL     1       0.987  -2.604  26.412  0.00  0.00    -0.222 NA
ATOM     12  C   UNL     1       0.155  -1.733  25.832  0.00  0.00    +0.199 C 
ATOM     13  N   UNL     1      -1.169  -1.841  26.081  0.00  0.00    -0.221 NA
ATOM     14  C   UNL     1      -1.667  -2.791  26.887  0.00  0.00    +0.121 C 
ATOM     15  C   UNL     1       1.370  -4.470  27.830  0.00  0.00    +0.022 C 
ATOM     16  C   UNL     1       0.833  -5.457  28.670  0.00  0.00    +0.021 C 
ENDBRANCH   6   7
BRANCH   1  17
ATOM     17  C   UNL     1      -2.103  -4.948  31.331  0.00  0.00    +0.200 C 
ATOM     18  O   UNL     1      -1.052  -4.184  31.231  0.00  0.00    -0.213 OA
BRANCH  17  20
ATOM     19  C   UNL     1      -4.039  -3.539  31.049  0.00  0.00    +0.044 C 
ATOM     20  C   UNL     1      -3.301  -4.335  31.861  0.00  0.00    +0.054 C 
ATOM     21  C   UNL     1      -3.904  -4.571  33.157  0.00  0.00    +0.195 C 
ATOM     22  O   UNL     1      -3.360  -5.297  34.018  0.00  0.00    -0.287 OA
ATOM     23  C   UNL     1      -5.204  -3.998  33.571  0.00  0.00    +0.045 C 
ATOM     24  C   UNL     1      -5.872  -3.235  32.749  0.00  0.00    +0.045 C 
ATOM     25  C   UNL     1      -5.305  -2.975  31.440  0.00  0.00    +0.196 C 
ATOM     26  O   UNL     1      -5.976  -2.230  30.655  0.00  0.00    -0.287 OA
ENDBRANCH  17  20
ENDBRANCH   1  17
TORSDOF 3
