REMARK  Name = =
REMARK  5 active torsions:
REMARK  status: ('A' for Active; 'I' for Inactive)
REMARK    1  A    between atoms: C_1  and  C_4
REMARK    2  A    between atoms: C_1  and  C_17
REMARK    3  A    between atoms: C_3  and  N_12
REMARK    4  A    between atoms: C_11  and  S_16
REMARK    5  A    between atoms: C_22  and  C_23
REMARK                            x       y       z     vdW  Elec       q    Type
REMARK                         _______ _______ _______ _____ _____    ______ ____
ROOT
ATOM      1  C   UNL     1      -0.542  -5.779  30.709  0.00  0.00    +0.201 C 
ATOM      2  O   UNL     1      -0.766  -4.771  29.911  0.00  0.00    -0.213 OA
ENDROOT
BRANCH   1   4
ATOM      3  C   UNL     1      -2.687  -6.779  31.038  0.00  0.00    +0.127 C 
ATOM      4  C   UNL     1      -1.460  -6.883  30.499  0.00  0.00    +0.072 C 
ATOM      5  C   UNL     1      -1.037  -8.120  29.857  0.00  0.00    +0.196 C 
ATOM      6  O   UNL     1       0.105  -8.313  29.341  0.00  0.00    -0.287 OA
ATOM      7  C   UNL     1      -2.002  -9.243  29.813  0.00  0.00    +0.045 C 
ATOM      8  C   UNL     1      -3.207  -9.155  30.332  0.00  0.00    +0.047 C 
ATOM      9  C   UNL     1      -3.596  -7.904  30.972  0.00  0.00    +0.213 C 
ATOM     10  O   UNL     1      -4.746  -7.755  31.494  0.00  0.00    -0.285 OA
BRANCH   3  12
ATOM     11  C   UNL     1      -3.262  -5.485  33.027  0.00  0.00    +0.211 A 
ATOM     12  N   UNL     1      -3.148  -5.581  31.681  0.00  0.00    -0.183 N 
ATOM     13  N   UNL     1      -3.520  -4.430  31.200  0.00  0.00    -0.038 NA
ATOM     14  N   UNL     1      -3.862  -3.620  32.213  0.00  0.00    -0.022 NA
ATOM     15  N   UNL     1      -3.709  -4.258  33.364  0.00  0.00    -0.101 NA
BRANCH  11  16
ATOM     16  S   UNL     1      -2.887  -6.763  34.218  0.00  0.00    -0.102 S 
ATOM     17  H   UNL     1      -3.125  -6.297  35.473  0.00  0.00    +0.110 HD
ENDBRANCH  11  16
ENDBRANCH   3  12
ENDBRANCH   1   4
BRANCH   1  18
ATOM     18  C   UNL     1       0.540  -5.653  31.649  0.00  0.00    +0.014 C 
ATOM     19  C   UNL     1       0.365  -6.277  32.899  0.00  0.00    -0.001 C 
ATOM     20  C   UNL     1       1.439  -6.415  33.746  0.00  0.00    -0.000 C 
ATOM     21  C   UNL     1       2.694  -5.969  33.425  0.00  0.00    +0.000 C 
ATOM     22  C   UNL     1       2.835  -5.369  32.208  0.00  0.00    +0.001 C 
ATOM     23  C   UNL     1       1.783  -5.191  31.294  0.00  0.00    +0.016 C 
BRANCH  23  24
ATOM     24  C   UNL     1       2.007  -4.513  30.041  0.00  0.00    +0.081 C 
ATOM     25  N   UNL     1       1.701  -3.238  29.763  0.00  0.00    -0.242 NA
ATOM     26  C   UNL     1       1.888  -2.610  28.613  0.00  0.00    +0.118 C 
ATOM     27  C   UNL     1       2.453  -3.282  27.544  0.00  0.00    +0.102 C 
ATOM     28  N   UNL     1       2.653  -2.657  26.359  0.00  0.00    -0.222 NA
ATOM     29  C   UNL     1       2.311  -1.369  26.177  0.00  0.00    +0.199 C 
ATOM     30  N   UNL     1       1.766  -0.717  27.198  0.00  0.00    -0.221 NA
ATOM     31  C   UNL     1       1.545  -1.287  28.398  0.00  0.00    +0.121 C 
ATOM     32  C   UNL     1       2.796  -4.588  27.739  0.00  0.00    +0.022 C 
ATOM     33  C   UNL     1       2.574  -5.202  28.982  0.00  0.00    +0.021 C 
ENDBRANCH  23  24
ENDBRANCH   1  18
TORSDOF 5
