REMARK  Name = =
REMARK  8 active torsions:
REMARK  status: ('A' for Active; 'I' for Inactive)
REMARK    1  A    between atoms: C_1  and  C_21
REMARK    2  A    between atoms: C_6  and  C_7
REMARK    3  A    between atoms: C_16  and  O_17
REMARK    4  A    between atoms: O_17  and  C_18
REMARK    5  A    between atoms: C_18  and  O_20
REMARK    6  A    between atoms: C_21  and  C_24
REMARK    7  A    between atoms: C_23  and  N_32
REMARK    8  A    between atoms: C_31  and  S_36
REMARK                            x       y       z     vdW  Elec       q    Type
REMARK                         _______ _______ _______ _____ _____    ______ ____
ROOT
ATOM      1  C   UNL     1      -0.773  -6.653  31.646  0.00  0.00    +0.014 C 
ATOM      2  C   UNL     1      -1.413  -7.259  32.706  0.00  0.00    -0.001 C 
ATOM      3  C   UNL     1      -0.757  -8.019  33.666  0.00  0.00    -0.000 C 
ATOM      4  C   UNL     1       0.595  -8.201  33.607  0.00  0.00    +0.000 C 
ATOM      5  C   UNL     1       1.247  -7.591  32.548  0.00  0.00    +0.001 C 
ATOM      6  C   UNL     1       0.608  -6.852  31.608  0.00  0.00    +0.019 C 
ENDROOT
BRANCH   6   7
ATOM      7  C   UNL     1       1.364  -6.281  30.518  0.00  0.00    +0.116 C 
ATOM      8  N   UNL     1       1.422  -6.974  29.365  0.00  0.00    -0.239 NA
ATOM      9  C   UNL     1       2.084  -6.489  28.310  0.00  0.00    +0.118 C 
ATOM     10  C   UNL     1       2.718  -5.258  28.399  0.00  0.00    +0.105 C 
ATOM     11  N   UNL     1       3.379  -4.786  27.324  0.00  0.00    -0.222 NA
ATOM     12  C   UNL     1       3.407  -5.519  26.196  0.00  0.00    +0.199 C 
ATOM     13  N   UNL     1       2.794  -6.716  26.101  0.00  0.00    -0.221 NA
ATOM     14  C   UNL     1       2.123  -7.230  27.142  0.00  0.00    +0.121 C 
ATOM     15  C   UNL     1       2.673  -4.527  29.573  0.00  0.00    +0.060 C 
ATOM     16  C   UNL     1       1.969  -5.071  30.654  0.00  0.00    +0.171 C 
BRANCH  16  17
ATOM     17  O   UNL     1       1.896  -4.374  31.840  0.00  0.00    -0.392 OA
BRANCH  17  18
ATOM     18  C   UNL     1       2.837  -4.568  32.867  0.00  0.00    +0.513 C 
ATOM     19  O   UNL     1       3.705  -5.434  32.654  0.00  0.00    -0.203 OA
BRANCH  18  20
ATOM     20  O   UNL     1       2.759  -3.815  34.030  0.00  0.00    -0.449 OA
ATOM     21  H   UNL     1       3.386  -3.944  34.715  0.00  0.00    +0.299 HD
ENDBRANCH  18  20
ENDBRANCH  17  18
ENDBRANCH  16  17
ENDBRANCH   6   7
BRANCH   1  22
ATOM     22  C   UNL     1      -1.414  -5.744  30.746  0.00  0.00    +0.201 C 
ATOM     23  O   UNL     1      -0.827  -5.721  29.589  0.00  0.00    -0.213 OA
BRANCH  22  25
ATOM     24  C   UNL     1      -2.528  -3.625  30.506  0.00  0.00    +0.127 C 
ATOM     25  C   UNL     1      -2.556  -4.912  30.964  0.00  0.00    +0.072 C 
ATOM     26  C   UNL     1      -3.849  -5.298  31.492  0.00  0.00    +0.196 C 
ATOM     27  O   UNL     1      -4.015  -6.470  31.928  0.00  0.00    -0.287 OA
ATOM     28  C   UNL     1      -5.036  -4.404  31.551  0.00  0.00    +0.045 C 
ATOM     29  C   UNL     1      -4.909  -3.181  31.090  0.00  0.00    +0.047 C 
ATOM     30  C   UNL     1      -3.654  -2.720  30.541  0.00  0.00    +0.213 C 
ATOM     31  O   UNL     1      -3.493  -1.540  30.082  0.00  0.00    -0.285 OA
BRANCH  24  33
ATOM     32  C   UNL     1      -1.035  -3.000  28.675  0.00  0.00    +0.211 A 
ATOM     33  N   UNL     1      -1.291  -3.175  29.974  0.00  0.00    -0.183 N 
ATOM     34  N   UNL     1      -0.206  -2.834  30.614  0.00  0.00    -0.038 NA
ATOM     35  N   UNL     1       0.757  -2.442  29.804  0.00  0.00    -0.022 NA
ATOM     36  N   UNL     1       0.229  -2.551  28.596  0.00  0.00    -0.101 NA
BRANCH  32  37
ATOM     37  S   UNL     1      -2.059  -3.267  27.240  0.00  0.00    -0.102 S 
ATOM     38  H   UNL     1      -3.280  -3.721  27.632  0.00  0.00    +0.110 HD
ENDBRANCH  32  37
ENDBRANCH  24  33
ENDBRANCH  22  25
ENDBRANCH   1  22
TORSDOF 8
