REMARK  Name = =
REMARK  10 active torsions:
REMARK  status: ('A' for Active; 'I' for Inactive)
REMARK    1  A    between atoms: C_1  and  N_10
REMARK    2  A    between atoms: C_2  and  C_22
REMARK    3  A    between atoms: C_9  and  S_14
REMARK    4  A    between atoms: S_14  and  S_15
REMARK    5  A    between atoms: S_15  and  N_18
REMARK    6  A    between atoms: C_22  and  C_24
REMARK    7  A    between atoms: C_29  and  C_30
REMARK    8  A    between atoms: C_39  and  O_40
REMARK    9  A    between atoms: O_40  and  C_41
REMARK   10  A    between atoms: C_41  and  O_43
REMARK                            x       y       z     vdW  Elec       q    Type
REMARK                         _______ _______ _______ _____ _____    ______ ____
ROOT
ATOM      1  C   UNL     1       0.715  -6.879  31.578  0.00  0.00    +0.127 C 
ATOM      2  C   UNL     1       1.426  -6.202  30.687  0.00  0.00    +0.072 C 
ATOM      3  C   UNL     1       2.626  -5.510  31.203  0.00  0.00    +0.196 C 
ATOM      4  O   UNL     1       3.363  -4.875  30.433  0.00  0.00    -0.287 OA
ATOM      5  C   UNL     1       3.029  -5.537  32.599  0.00  0.00    +0.045 C 
ATOM      6  C   UNL     1       2.322  -6.200  33.474  0.00  0.00    +0.047 C 
ATOM      7  C   UNL     1       1.139  -6.897  32.995  0.00  0.00    +0.213 C 
ATOM      8  O   UNL     1       0.459  -7.538  33.821  0.00  0.00    -0.285 OA
ENDROOT
BRANCH   1  10
ATOM      9  C   UNL     1      -1.693  -7.055  31.240  0.00  0.00    +0.237 A 
ATOM     10  N   UNL     1      -0.466  -7.614  31.323  0.00  0.00    -0.182 N 
ATOM     11  N   UNL     1      -0.607  -8.890  31.160  0.00  0.00    -0.038 NA
ATOM     12  N   UNL     1      -1.876  -9.242  30.965  0.00  0.00    -0.022 NA
ATOM     13  N   UNL     1      -2.527  -8.101  31.018  0.00  0.00    -0.099 NA
BRANCH   9  14
ATOM     14  S   UNL     1      -2.205  -5.426  31.375  0.00  0.00    +0.096 S 
BRANCH  14  15
ATOM     15  S   UNL     1      -4.194  -5.146  30.964  0.00  0.00    +0.108 S 
ATOM     16  O   UNL     1      -5.051  -6.228  30.480  0.00  0.00    -0.143 OA
ATOM     17  O   UNL     1      -4.042  -4.209  29.827  0.00  0.00    -0.143 OA
BRANCH  15  18
ATOM     18  N   UNL     1      -4.865  -4.479  32.385  0.00  0.00    -0.164 N 
ATOM     19  C   UNL     1      -4.638  -3.151  32.818  0.00  0.00    +0.317 C 
ATOM     20  O   UNL     1      -3.893  -2.404  32.108  0.00  0.00    -0.251 OA
ATOM     21  N   UNL     1      -5.235  -2.681  34.018  0.00  0.00    -0.312 N 
ATOM     22  H   UNL     1      -5.445  -5.053  32.936  0.00  0.00    +0.179 HD
ATOM     23  H   UNL     1      -5.808  -3.279  34.550  0.00  0.00    +0.147 HD
ATOM     24  H   UNL     1      -5.076  -1.757  34.318  0.00  0.00    +0.147 HD
ENDBRANCH  15  18
ENDBRANCH  14  15
ENDBRANCH   9  14
ENDBRANCH   1  10
BRANCH   2  25
ATOM     25  C   UNL     1       1.193  -6.334  29.267  0.00  0.00    +0.201 C 
ATOM     26  O   UNL     1      -0.022  -6.350  28.809  0.00  0.00    -0.213 OA
BRANCH  25  27
ATOM     27  C   UNL     1       2.262  -6.456  28.301  0.00  0.00    +0.014 C 
ATOM     28  C   UNL     1       2.795  -7.761  28.129  0.00  0.00    -0.001 C 
ATOM     29  C   UNL     1       3.937  -7.941  27.403  0.00  0.00    -0.000 C 
ATOM     30  C   UNL     1       4.572  -6.865  26.837  0.00  0.00    +0.000 C 
ATOM     31  C   UNL     1       4.038  -5.580  27.008  0.00  0.00    +0.001 C 
ATOM     32  C   UNL     1       2.885  -5.384  27.736  0.00  0.00    +0.019 C 
BRANCH  32  33
ATOM     33  C   UNL     1       2.177  -4.088  27.714  0.00  0.00    +0.116 C 
ATOM     34  N   UNL     1       0.819  -4.180  27.556  0.00  0.00    -0.239 NA
ATOM     35  C   UNL     1      -0.021  -3.160  27.481  0.00  0.00    +0.118 C 
ATOM     36  C   UNL     1       0.510  -1.869  27.572  0.00  0.00    +0.105 C 
ATOM     37  N   UNL     1      -0.344  -0.853  27.480  0.00  0.00    -0.222 NA
ATOM     38  C   UNL     1      -1.672  -1.028  27.305  0.00  0.00    +0.199 C 
ATOM     39  N   UNL     1      -2.161  -2.260  27.221  0.00  0.00    -0.221 NA
ATOM     40  C   UNL     1      -1.383  -3.331  27.303  0.00  0.00    +0.121 C 
ATOM     41  C   UNL     1       1.869  -1.722  27.732  0.00  0.00    +0.060 C 
ATOM     42  C   UNL     1       2.695  -2.854  27.802  0.00  0.00    +0.171 C 
BRANCH  42  43
ATOM     43  O   UNL     1       4.031  -2.603  27.962  0.00  0.00    -0.392 OA
BRANCH  43  44
ATOM     44  C   UNL     1       4.930  -2.279  26.972  0.00  0.00    +0.513 C 
ATOM     45  O   UNL     1       4.443  -2.091  25.820  0.00  0.00    -0.203 OA
BRANCH  44  46
ATOM     46  O   UNL     1       6.292  -2.161  27.208  0.00  0.00    -0.449 OA
ATOM     47  H   UNL     1       6.872  -1.938  26.506  0.00  0.00    +0.299 HD
ENDBRANCH  44  46
ENDBRANCH  43  44
ENDBRANCH  42  43
ENDBRANCH  32  33
ENDBRANCH  25  27
ENDBRANCH   2  25
TORSDOF 10
