REMARK  Name = =
REMARK  8 active torsions:
REMARK  status: ('A' for Active; 'I' for Inactive)
REMARK    1  A    between atoms: C_1  and  N_28
REMARK    2  A    between atoms: C_2  and  C_18
REMARK    3  A    between atoms: C_9  and  N_32
REMARK    4  A    between atoms: C_10  and  C_13
REMARK    5  A    between atoms: C_19  and  N_23
REMARK    6  A    between atoms: N_23  and  S_24
REMARK    7  A    between atoms: S_24  and  N_27
REMARK    8  A    between atoms: N_32  and  O_33
REMARK                            x       y       z     vdW  Elec       q    Type
REMARK                         _______ _______ _______ _____ _____    ______ ____
ROOT
ATOM      1  C   UNL     1       0.358  -6.030  27.984  0.00  0.00    +0.090 C 
ATOM      2  C   UNL     1       1.463  -6.167  27.300  0.00  0.00    +0.053 C 
ATOM      3  C   UNL     1       2.117  -4.990  26.736  0.00  0.00    +0.197 C 
ATOM      4  O   UNL     1       3.158  -5.036  26.080  0.00  0.00    -0.287 OA
ATOM      5  C   UNL     1       1.573  -3.612  26.902  0.00  0.00    +0.044 C 
ATOM      6  C   UNL     1       0.400  -3.496  27.626  0.00  0.00    +0.043 C 
ATOM      7  C   UNL     1      -0.224  -2.263  27.786  0.00  0.00    +0.005 C 
ATOM      8  C   UNL     1       0.361  -1.178  27.206  0.00  0.00    +0.019 C 
ATOM      9  C   UNL     1       1.527  -1.290  26.487  0.00  0.00    +0.078 C 
ATOM     10  C   UNL     1       2.170  -2.550  26.323  0.00  0.00    +0.027 C 
ATOM     11  C   UNL     1      -0.233  -4.652  28.178  0.00  0.00    +0.209 C 
ATOM     12  O   UNL     1      -1.287  -4.532  28.829  0.00  0.00    -0.285 OA
ENDROOT
BRANCH  10  13
ATOM     13  C   UNL     1       3.488  -2.532  25.703  0.00  0.00    +0.031 C 
ATOM     14  S   UNL     1       5.100  -2.418  26.516  0.00  0.00    -0.086 S 
ATOM     15  C   UNL     1       6.058  -2.513  24.956  0.00  0.00    +0.035 C 
ATOM     16  C   UNL     1       5.086  -2.618  24.011  0.00  0.00    +0.007 C 
ATOM     17  C   UNL     1       3.801  -2.627  24.384  0.00  0.00    +0.007 C 
ENDBRANCH  10  13
BRANCH   2  18
ATOM     18  C   UNL     1       2.079  -7.493  27.144  0.00  0.00    +0.001 C 
ATOM     19  C   UNL     1       1.975  -8.337  26.174  0.00  0.00    +0.062 C 
ATOM     20  C   UNL     1       2.807  -9.570  26.432  0.00  0.00    +0.011 C 
ATOM     21  C   UNL     1       3.403  -9.435  27.554  0.00  0.00    -0.020 C 
ATOM     22  C   UNL     1       3.029  -8.120  28.118  0.00  0.00    +0.054 C 
BRANCH  19  23
ATOM     23  N   UNL     1       1.266  -8.354  24.921  0.00  0.00    -0.206 N 
ATOM     24  H   UNL     1       0.295  -8.502  24.853  0.00  0.00    +0.175 HD
BRANCH  23  25
ATOM     25  S   UNL     1       2.297  -8.085  23.525  0.00  0.00    +0.107 S 
ATOM     26  O   UNL     1       1.507  -7.424  22.428  0.00  0.00    -0.138 OA
ATOM     27  O   UNL     1       2.763  -9.442  23.084  0.00  0.00    -0.138 OA
BRANCH  25  28
ATOM     28  N   UNL     1       3.633  -7.138  23.994  0.00  0.00    -0.191 NA
ATOM     29  H   UNL     1       3.310  -6.218  24.292  0.00  0.00    +0.146 HD
ATOM     30  H   UNL     1       4.271  -7.035  23.204  0.00  0.00    +0.146 HD
ENDBRANCH  25  28
ENDBRANCH  23  25
ENDBRANCH  19  23
ENDBRANCH   2  18
BRANCH   1  31
ATOM     31  N   UNL     1      -0.413  -7.030  28.592  0.00  0.00    -0.305 N 
ATOM     32  C   UNL     1      -0.762  -7.497  29.891  0.00  0.00    +0.093 C 
ATOM     33  C   UNL     1      -1.561  -8.665  29.347  0.00  0.00    +0.043 C 
ATOM     34  C   UNL     1      -1.407  -7.961  28.035  0.00  0.00    +0.093 C 
ENDBRANCH   1  31
BRANCH   9  35
ATOM     35  N   UNL     1       2.143  -0.159  25.898  0.00  0.00    -0.267 N 
ATOM     36  H   UNL     1       2.971   0.213  26.279  0.00  0.00    +0.194 HD
BRANCH  35  37
ATOM     37  O   UNL     1       1.572   0.409  24.794  0.00  0.00    -0.289 OA
ATOM     38  H   UNL     1       0.769  -0.081  24.557  0.00  0.00    +0.244 HD
ENDBRANCH  35  37
ENDBRANCH   9  35
TORSDOF 8
