REMARK  Name = =
REMARK  0 active torsions:
REMARK  status: ('A' for Active; 'I' for Inactive)
REMARK                            x       y       z     vdW  Elec       q    Type
REMARK                         _______ _______ _______ _____ _____    ______ ____
ROOT
ATOM      1  C   UNL     1      -3.057  -3.283  30.429  0.00  0.00    +0.000 C 
ATOM      2  C   UNL     1      -2.274  -4.225  29.599  0.00  0.00    +0.000 C 
ATOM      3  C   UNL     1      -2.544  -5.655  29.771  0.00  0.00    +0.000 C 
ATOM      4  C   UNL     1      -1.345  -6.521  30.025  0.00  0.00    +0.000 C 
ATOM      5  C   UNL     1      -1.552  -7.192  31.366  0.00  0.00    +0.000 C 
ATOM      6  C   UNL     1      -3.056  -7.309  31.434  0.00  0.00    +0.000 C 
ATOM      7  C   UNL     1      -3.527  -6.078  30.763  0.00  0.00    +0.000 C 
ATOM      8  C   UNL     1      -4.225  -5.086  31.560  0.00  0.00    +0.001 C 
ATOM      9  C   UNL     1      -3.701  -4.840  32.944  0.00  0.00    +0.004 C 
ATOM     10  C   UNL     1      -4.801  -4.157  33.731  0.00  0.00    +0.022 C 
ATOM     11  C   UNL     1      -5.359  -3.001  32.986  0.00  0.00    -0.042 C 
ATOM     12  C   UNL     1      -6.064  -2.118  33.688  0.00  0.00    +0.029 C 
ATOM     13  C   UNL     1      -6.614  -0.982  32.963  0.00  0.00    +0.173 C 
ATOM     14  O   UNL     1      -6.857   0.070  33.588  0.00  0.00    -0.291 OA
ATOM     15  C   UNL     1      -6.896  -1.035  31.508  0.00  0.00    +0.069 C 
ATOM     16  C   UNL     1      -6.483  -2.374  30.916  0.00  0.00    +0.012 C 
ATOM     17  C   UNL     1      -5.192  -2.765  31.550  0.00  0.00    +0.019 C 
ATOM     18  C   UNL     1      -4.420  -3.806  30.826  0.00  0.00    +0.004 C 
ENDROOT
TORSDOF 0
