REMARK  Name = =
REMARK  2 active torsions:
REMARK  status: ('A' for Active; 'I' for Inactive)
REMARK    1  A    between atoms: C_4  and  C_19
REMARK    2  A    between atoms: C_19  and  O_21
REMARK                            x       y       z     vdW  Elec       q    Type
REMARK                         _______ _______ _______ _____ _____    ______ ____
ROOT
ATOM      1  C   UNL     1      -2.529  -3.846  28.920  0.00  0.00    +0.000 C 
ATOM      2  C   UNL     1      -1.068  -3.566  28.608  0.00  0.00    +0.001 C 
ATOM      3  C   UNL     1      -0.138  -4.462  29.406  0.00  0.00    +0.011 C 
ATOM      4  C   UNL     1       1.153  -4.671  28.602  0.00  0.00    +0.099 C 
ATOM      5  C   UNL     1       0.676  -5.541  27.488  0.00  0.00    +0.011 C 
ATOM      6  C   UNL     1      -0.560  -6.275  27.982  0.00  0.00    +0.001 C 
ATOM      7  C   UNL     1      -0.659  -5.886  29.412  0.00  0.00    +0.001 C 
ATOM      8  C   UNL     1      -2.002  -6.021  30.027  0.00  0.00    +0.001 C 
ATOM      9  C   UNL     1      -1.875  -6.745  31.320  0.00  0.00    +0.004 C 
ATOM     10  C   UNL     1      -3.031  -6.602  32.271  0.00  0.00    +0.022 C 
ATOM     11  C   UNL     1      -3.747  -5.334  32.137  0.00  0.00    -0.042 C 
ATOM     12  C   UNL     1      -4.199  -4.656  33.170  0.00  0.00    +0.029 C 
ATOM     13  C   UNL     1      -4.911  -3.393  33.042  0.00  0.00    +0.173 C 
ATOM     14  O   UNL     1      -5.545  -2.895  33.999  0.00  0.00    -0.291 OA
ATOM     15  C   UNL     1      -4.886  -2.679  31.749  0.00  0.00    +0.069 C 
ATOM     16  C   UNL     1      -4.924  -3.708  30.640  0.00  0.00    +0.012 C 
ATOM     17  C   UNL     1      -3.955  -4.814  30.770  0.00  0.00    +0.019 C 
ATOM     18  C   UNL     1      -2.610  -4.630  30.172  0.00  0.00    +0.004 C 
ENDROOT
BRANCH   4  19
ATOM     19  C   UNL     1       1.736  -3.392  28.166  0.00  0.00    +0.313 C 
ATOM     20  O   UNL     1       1.861  -3.069  26.955  0.00  0.00    -0.250 OA
BRANCH  19  21
ATOM     21  O   UNL     1       2.169  -2.498  29.110  0.00  0.00    -0.480 OA
ATOM     22  H   UNL     1       2.092  -2.704  30.021  0.00  0.00    +0.295 HD
ENDBRANCH  19  21
ENDBRANCH   4  19
TORSDOF 2
