REMARK  Name = =
REMARK  2 active torsions:
REMARK  status: ('A' for Active; 'I' for Inactive)
REMARK    1  A    between atoms: C_4  and  C_24
REMARK    2  A    between atoms: C_24  and  O_26
REMARK                            x       y       z     vdW  Elec       q    Type
REMARK                         _______ _______ _______ _____ _____    ______ ____
ROOT
ATOM      1  C   UNL     1      -0.381  -5.407  28.282  0.00  0.00    +0.028 C 
ATOM      2  C   UNL     1       1.064  -5.007  28.063  0.00  0.00    +0.003 C 
ATOM      3  C   UNL     1       1.892  -5.230  29.310  0.00  0.00    +0.011 C 
ATOM      4  C   UNL     1       0.923  -5.168  30.485  0.00  0.00    +0.101 C 
ATOM      5  C   UNL     1       0.320  -6.575  30.383  0.00  0.00    +0.036 C 
ATOM      6  C   UNL     1      -0.382  -6.699  29.067  0.00  0.00    +0.118 C 
ATOM      7  N   UNL     1      -1.743  -7.136  29.343  0.00  0.00    -0.249 NA
ATOM      8  C   UNL     1      -1.963  -8.240  28.759  0.00  0.00    +0.194 C 
ATOM      9  N   UNL     1      -0.820  -8.627  28.067  0.00  0.00    -0.231 NA
ATOM     10  C   UNL     1       0.160  -7.763  28.201  0.00  0.00    +0.059 C 
ATOM     11  C   UNL     1       1.569  -7.413  30.351  0.00  0.00    +0.003 C 
ATOM     12  C   UNL     1       2.448  -6.610  29.421  0.00  0.00    +0.001 C 
ATOM     13  C   UNL     1       2.619  -7.291  28.086  0.00  0.00    +0.006 C 
ATOM     14  C   UNL     1       3.932  -7.983  28.110  0.00  0.00    +0.005 C 
ATOM     15  C   UNL     1       4.102  -9.143  27.214  0.00  0.00    +0.022 C 
ATOM     16  C   UNL     1       2.906  -9.936  26.990  0.00  0.00    -0.041 C 
ATOM     17  C   UNL     1       2.971 -11.233  26.732  0.00  0.00    +0.029 C 
ATOM     18  C   UNL     1       1.685 -11.927  26.523  0.00  0.00    +0.173 C 
ATOM     19  O   UNL     1       1.619 -13.159  26.766  0.00  0.00    -0.291 OA
ATOM     20  C   UNL     1       0.466 -11.241  26.038  0.00  0.00    +0.069 C 
ATOM     21  C   UNL     1       0.721  -9.738  25.890  0.00  0.00    +0.013 C 
ATOM     22  C   UNL     1       1.581  -9.334  27.039  0.00  0.00    +0.024 C 
ATOM     23  C   UNL     1       1.476  -7.969  27.532  0.00  0.00    +0.042 C 
ENDROOT
BRANCH   4  24
ATOM     24  C   UNL     1       1.683  -5.131  31.756  0.00  0.00    +0.313 C 
ATOM     25  O   UNL     1       2.633  -4.324  31.891  0.00  0.00    -0.250 OA
BRANCH  24  26
ATOM     26  O   UNL     1       1.381  -5.959  32.807  0.00  0.00    -0.480 OA
ATOM     27  H   UNL     1       0.676  -6.572  32.733  0.00  0.00    +0.295 HD
ENDBRANCH  24  26
ENDBRANCH   4  24
TORSDOF 2
