REMARK  Name = =
REMARK  0 active torsions:
REMARK  status: ('A' for Active; 'I' for Inactive)
REMARK                            x       y       z     vdW  Elec       q    Type
REMARK                         _______ _______ _______ _____ _____    ______ ____
ROOT
ATOM      1  C   UNL     1       1.226  -1.895  22.389  0.00  0.00    +0.078 C 
ATOM      2  C   UNL     1       0.894  -0.518  22.933  0.00  0.00    +0.014 C 
ATOM      3  C   UNL     1       1.088   0.509  21.973  0.00  0.00    +0.012 C 
ATOM      4  C   UNL     1       2.438   1.190  21.873  0.00  0.00    +0.102 C 
ATOM      5  C   UNL     1       3.541   0.222  21.821  0.00  0.00    +0.326 C 
ATOM      6  O   UNL     1       4.615   0.591  22.313  0.00  0.00    -0.249 OA
ATOM      7  O   UNL     1       3.511  -1.044  21.287  0.00  0.00    -0.411 OA
ATOM      8  S   UNL     1       1.965  -1.731  20.756  0.00  0.00    -0.042 S 
ATOM      9  C   UNL     1       2.182  -3.133  19.730  0.00  0.00    +0.097 C 
ATOM     10  C   UNL     1       2.336  -2.329  18.425  0.00  0.00    +0.103 C 
ATOM     11  N   UNL     1       1.331  -1.340  18.392  0.00  0.00    -0.204 NA
ATOM     12  C   UNL     1       1.277  -0.639  19.698  0.00  0.00    +0.162 C 
ATOM     13  C   UNL     1       2.131   1.700  20.449  0.00  0.00    +0.039 C 
ATOM     14  C   UNL     1       1.672   0.725  19.479  0.00  0.00    +0.143 C 
ATOM     15  N   UNL     1       2.620   0.755  18.355  0.00  0.00    -0.246 NA
ATOM     16  C   UNL     1       2.093   1.294  17.327  0.00  0.00    +0.194 C 
ATOM     17  N   UNL     1       0.776   1.679  17.616  0.00  0.00    -0.231 NA
ATOM     18  C   UNL     1       0.483   1.392  18.793  0.00  0.00    +0.061 C 
ATOM     19  C   UNL     1       0.992   2.611  20.901  0.00  0.00    +0.003 C 
ATOM     20  C   UNL     1       0.148   1.583  21.676  0.00  0.00    +0.001 C 
ATOM     21  C   UNL     1      -0.993   1.253  20.782  0.00  0.00    +0.006 C 
ATOM     22  C   UNL     1      -2.256   1.771  21.413  0.00  0.00    +0.005 C 
ATOM     23  C   UNL     1      -3.483   1.257  20.697  0.00  0.00    +0.022 C 
ATOM     24  C   UNL     1      -3.274   1.197  19.227  0.00  0.00    -0.041 C 
ATOM     25  C   UNL     1      -4.370   0.973  18.497  0.00  0.00    +0.029 C 
ATOM     26  C   UNL     1      -4.226   0.907  17.050  0.00  0.00    +0.173 C 
ATOM     27  O   UNL     1      -4.880   0.085  16.377  0.00  0.00    -0.291 OA
ATOM     28  C   UNL     1      -3.277   1.851  16.418  0.00  0.00    +0.069 C 
ATOM     29  C   UNL     1      -2.200   2.332  17.372  0.00  0.00    +0.013 C 
ATOM     30  C   UNL     1      -2.007   1.357  18.518  0.00  0.00    +0.024 C 
ATOM     31  C   UNL     1      -0.851   1.696  19.366  0.00  0.00    +0.042 C 
ENDROOT
TORSDOF 0
