REMARK  Name = =
REMARK  3 active torsions:
REMARK  status: ('A' for Active; 'I' for Inactive)
REMARK    1  A    between atoms: C_20  and  C_28
REMARK    2  A    between atoms: C_28  and  C_30
REMARK    3  A    between atoms: C_30  and  O_32
REMARK                            x       y       z     vdW  Elec       q    Type
REMARK                         _______ _______ _______ _____ _____    ______ ____
ROOT
ATOM      1  N   UNL     1      -7.808  -1.257  30.650  0.00  0.00    -0.271 NA
ATOM      2  C   UNL     1      -6.709  -1.564  31.467  0.00  0.00    +0.073 C 
ATOM      3  C   UNL     1      -7.013  -1.226  32.889  0.00  0.00    +0.019 C 
ATOM      4  C   UNL     1      -8.293  -0.406  32.780  0.00  0.00    +0.019 C 
ATOM      5  C   UNL     1      -8.899  -0.975  31.519  0.00  0.00    +0.072 C 
ATOM      6  C   UNL     1      -5.377  -1.093  31.013  0.00  0.00    +0.085 C 
ATOM      7  N   UNL     1      -4.836  -1.811  29.889  0.00  0.00    -0.296 NA
ATOM      8  C   UNL     1      -3.431  -2.171  30.127  0.00  0.00    +0.069 C 
ATOM      9  C   UNL     1      -2.901  -2.923  28.952  0.00  0.00    +0.017 C 
ATOM     10  C   UNL     1      -2.173  -1.950  28.047  0.00  0.00    +0.003 C 
ATOM     11  C   UNL     1      -1.875  -2.558  26.717  0.00  0.00    +0.017 C 
ATOM     12  C   UNL     1      -1.658  -1.528  25.647  0.00  0.00    +0.069 C 
ATOM     13  N   UNL     1      -2.817  -0.742  25.361  0.00  0.00    -0.296 NA
ATOM     14  C   UNL     1      -3.982  -1.495  25.025  0.00  0.00    +0.086 C 
ATOM     15  C   UNL     1      -4.544  -1.134  23.650  0.00  0.00    +0.090 C 
ATOM     16  N   UNL     1      -4.939   0.231  23.565  0.00  0.00    -0.266 NA
ATOM     17  C   UNL     1      -6.341   0.466  23.439  0.00  0.00    +0.074 C 
ATOM     18  C   UNL     1      -6.547   1.546  22.411  0.00  0.00    +0.019 C 
ATOM     19  C   UNL     1      -5.137   2.078  22.205  0.00  0.00    +0.026 C 
ATOM     20  C   UNL     1      -4.324   0.801  22.355  0.00  0.00    +0.127 C 
ATOM     21  C   UNL     1      -6.843   1.036  24.771  0.00  0.00    +0.085 C 
ATOM     22  N   UNL     1      -7.383  -0.062  25.519  0.00  0.00    -0.295 NA
ATOM     23  C   UNL     1      -8.833  -0.066  25.385  0.00  0.00    +0.086 C 
ATOM     24  C   UNL     1      -9.398  -0.381  26.754  0.00  0.00    +0.086 C 
ATOM     25  N   UNL     1      -8.828   0.588  27.676  0.00  0.00    -0.295 NA
ATOM     26  C   UNL     1      -8.955   0.147  29.058  0.00  0.00    +0.086 C 
ATOM     27  C   UNL     1      -7.607  -0.360  29.580  0.00  0.00    +0.089 C 
ATOM     28  H   UNL     1      -5.379  -2.662  29.743  0.00  0.00    +0.123 HD
ATOM     29  H   UNL     1      -2.599  -0.128  24.576  0.00  0.00    +0.123 HD
ATOM     30  H   UNL     1      -7.132   0.039  26.502  0.00  0.00    +0.123 HD
ATOM     31  H   UNL     1      -9.315   1.477  27.566  0.00  0.00    +0.123 HD
ENDROOT
BRANCH  20  32
ATOM     32  C   UNL     1      -4.653  -0.045  21.197  0.00  0.00    +0.262 C 
ATOM     33  O   UNL     1      -5.481  -0.974  21.285  0.00  0.00    -0.283 OA
BRANCH  32  34
ATOM     34  C   UNL     1      -4.003   0.205  19.926  0.00  0.00    +0.375 C 
ATOM     35  O   UNL     1      -3.056   1.045  19.824  0.00  0.00    -0.242 OA
BRANCH  34  36
ATOM     36  O   UNL     1      -4.388  -0.459  18.783  0.00  0.00    -0.475 OA
ATOM     37  H   UNL     1      -5.083  -1.087  18.817  0.00  0.00    +0.295 HD
ENDBRANCH  34  36
ENDBRANCH  32  34
ENDBRANCH  20  32
TORSDOF 3
