MODEL 1
REMARK VINA RESULT:    -6.105      0.000      0.000
REMARK INTER + INTRA:          -7.773
REMARK INTER:                  -6.819
REMARK INTRA:                  -0.954
REMARK UNBOUND:                -0.954
REMARK  Name = =
REMARK  2 active torsions:
REMARK  status: ('A' for Active; 'I' for Inactive)
REMARK    1  A    between atoms: C_1  and  N_15
REMARK    2  A    between atoms: N_15  and  C_23
REMARK                            x       y       z     vdW  Elec       q    Type
REMARK                         _______ _______ _______ _____ _____    ______ ____
ROOT
ATOM      1  C   UNL     1      63.912 166.659  35.976  0.00  0.00    +0.050 C 
ATOM      2  C   UNL     1      64.928 166.099  35.281  0.00  0.00    -0.008 C 
ATOM      3  C   UNL     1      65.580 164.968  35.792  0.00  0.00    -0.020 C 
ATOM      4  C   UNL     1      65.176 164.445  36.996  0.00  0.00    -0.004 C 
ATOM      5  C   UNL     1      64.132 165.037  37.692  0.00  0.00    +0.001 C 
ATOM      6  C   UNL     1      63.481 166.144  37.209  0.00  0.00    +0.015 C 
ATOM      7  C   UNL     1      66.684 164.388  34.986  0.00  0.00    +0.052 C 
ATOM      8  C   UNL     1      66.157 164.377  33.584  0.00  0.00    -0.021 C 
ATOM      9  C   UNL     1      65.527 165.490  33.071  0.00  0.00    -0.021 C 
ATOM     10  C   UNL     1      65.039 165.478  31.780  0.00  0.00    -0.004 C 
ATOM     11  C   UNL     1      65.152 164.379  30.956  0.00  0.00    -0.000 C 
ATOM     12  C   UNL     1      65.782 163.266  31.468  0.00  0.00    -0.000 C 
ATOM     13  C   UNL     1      66.279 163.275  32.778  0.00  0.00    -0.004 C 
ATOM     14  C   UNL     1      65.422 166.664  33.979  0.00  0.00    +0.053 C 
ENDROOT
BRANCH   1  15
ATOM     15  N   UNL     1      63.207 167.773  35.489  0.00  0.00    -0.261 N 
ATOM     16  C   UNL     1      61.931 167.667  34.876  0.00  0.00    +0.136 C 
ATOM     17  N   UNL     1      61.232 168.697  34.377  0.00  0.00    -0.229 NA
ATOM     18  C   UNL     1      60.010 168.510  33.802  0.00  0.00    +0.100 C 
ATOM     19  C   UNL     1      59.424 167.268  33.697  0.00  0.00    +0.021 C 
ATOM     20  C   UNL     1      60.138 166.192  34.210  0.00  0.00    +0.004 C 
ATOM     21  C   UNL     1      61.362 166.421  34.781  0.00  0.00    +0.035 C 
BRANCH  15  23
ATOM     22  N   UNL     1      63.947 169.752  34.287  0.00  0.00    -0.283 NA
ATOM     23  C   UNL     1      63.750 169.104  35.559  0.00  0.00    +0.136 C 
ATOM     24  C   UNL     1      64.980 169.267  36.383  0.00  0.00    +0.038 C 
ATOM     25  C   UNL     1      65.849 170.269  35.642  0.00  0.00    +0.020 C 
ATOM     26  C   UNL     1      65.006 170.725  34.506  0.00  0.00    +0.070 C 
ATOM     27  H   UNL     1      63.092 170.217  33.987  0.00  0.00    +0.125 HD
ENDBRANCH  15  23
ENDBRANCH   1  15
TORSDOF 2
ENDMDL
