REMARK  Name = =
REMARK  0 active torsions:
REMARK  status: ('A' for Active; 'I' for Inactive)
REMARK                            x       y       z     vdW  Elec       q    Type
REMARK                         _______ _______ _______ _____ _____    ______ ____
ROOT
ATOM      1  C   UNL     1     -13.543 -44.589  27.166  0.00  0.00    +0.056 C 
ATOM      2  C   UNL     1     -12.440 -45.188  27.932  0.00  0.00    -0.018 C 
ATOM      3  C   UNL     1     -11.618 -44.269  28.365  0.00  0.00    +0.037 C 
ATOM      4  C   UNL     1     -12.055 -42.944  27.951  0.00  0.00    +0.192 C 
ATOM      5  O   UNL     1     -11.510 -41.816  28.185  0.00  0.00    -0.287 OA
ATOM      6  C   UNL     1     -13.276 -43.153  27.191  0.00  0.00    +0.021 C 
ATOM      7  C   UNL     1     -13.973 -42.148  26.642  0.00  0.00    -0.001 C 
ENDROOT
TORSDOF 0
