REMARK  Name = =
REMARK  1 active torsions:
REMARK  status: ('A' for Active; 'I' for Inactive)
REMARK    1  A    between atoms: C_1  and  C_8
REMARK                            x       y       z     vdW  Elec       q    Type
REMARK                         _______ _______ _______ _____ _____    ______ ____
ROOT
ATOM      1  C   UNL     1     -10.205 -42.776  30.344  0.00  0.00    +0.047 C 
ATOM      2  C   UNL     1     -10.744 -41.650  29.509  0.00  0.00    -0.019 C 
ATOM      3  C   UNL     1     -10.010 -41.414  28.454  0.00  0.00    +0.037 C 
ATOM      4  C   UNL     1      -8.876 -42.318  28.403  0.00  0.00    +0.192 C 
ATOM      5  O   UNL     1      -7.991 -42.336  27.504  0.00  0.00    -0.287 OA
ATOM      6  C   UNL     1      -9.004 -43.159  29.587  0.00  0.00    +0.020 C 
ATOM      7  C   UNL     1      -8.133 -44.089  29.880  0.00  0.00    -0.001 C 
ENDROOT
BRANCH   1   8
ATOM      8  C   UNL     1     -11.290 -43.831  30.368  0.00  0.00    +0.008 C 
ATOM      9  C   UNL     1     -11.221 -44.667  31.584  0.00  0.00    +0.001 C 
ATOM     10  C   UNL     1     -12.637 -44.576  32.221  0.00  0.00    +0.000 C 
ATOM     11  C   UNL     1     -12.951 -43.110  31.878  0.00  0.00    +0.000 C 
ATOM     12  C   UNL     1     -12.656 -43.192  30.393  0.00  0.00    +0.001 C 
ATOM     13  C   UNL     1     -13.646 -44.336  30.050  0.00  0.00    +0.000 C 
ATOM     14  C   UNL     1     -13.544 -45.265  31.242  0.00  0.00    +0.000 C 
ENDBRANCH   1   8
TORSDOF 1
