REMARK  Name = =
REMARK  9 active torsions:
REMARK  status: ('A' for Active; 'I' for Inactive)
REMARK    1  A    between atoms: C_1  and  C_8
REMARK    2  A    between atoms: C_1  and  S_15
REMARK    3  A    between atoms: S_15  and  S_17
REMARK    4  A    between atoms: S_15  and  S_22
REMARK    5  A    between atoms: S_17  and  S_18
REMARK    6  A    between atoms: S_18  and  C_19
REMARK    7  A    between atoms: C_19  and  O_21
REMARK    8  A    between atoms: S_22  and  C_23
REMARK    9  A    between atoms: C_23  and  O_25
REMARK                            x       y       z     vdW  Elec       q    Type
REMARK                         _______ _______ _______ _____ _____    ______ ____
ROOT
ATOM      1  C   UNL     1     -11.413 -43.038  30.487  0.00  0.00    +0.057 C 
ATOM      2  C   UNL     1     -12.746 -43.302  29.909  0.00  0.00    +0.011 C 
ATOM      3  C   UNL     1     -13.051 -44.749  30.243  0.00  0.00    +0.001 C 
ATOM      4  C   UNL     1     -11.826 -45.227  31.049  0.00  0.00    +0.001 C 
ATOM      5  C   UNL     1     -10.821 -44.470  30.196  0.00  0.00    +0.011 C 
ATOM      6  C   UNL     1     -11.237 -44.944  28.821  0.00  0.00    +0.001 C 
ATOM      7  C   UNL     1     -12.664 -45.512  28.959  0.00  0.00    +0.000 C 
ENDROOT
BRANCH   1   8
ATOM      8  C   UNL     1     -10.493 -42.169  29.726  0.00  0.00    +0.057 C 
ATOM      9  C   UNL     1     -11.082 -41.577  28.520  0.00  0.00    -0.018 C 
ATOM     10  C   UNL     1     -10.165 -41.598  27.569  0.00  0.00    +0.037 C 
ATOM     11  C   UNL     1      -8.919 -42.177  28.033  0.00  0.00    +0.192 C 
ATOM     12  O   UNL     1      -7.899 -42.315  27.312  0.00  0.00    -0.287 OA
ATOM     13  C   UNL     1      -9.137 -42.531  29.444  0.00  0.00    +0.021 C 
ATOM     14  C   UNL     1      -8.153 -43.026  30.181  0.00  0.00    -0.001 C 
ENDBRANCH   1   8
BRANCH   1  15
ATOM     15  S   UNL     1     -11.497 -42.771  32.160  0.00  0.00    -0.065 S 
BRANCH  15  16
ATOM     16  S   UNL     1     -10.489 -42.950  32.898  0.00  0.00    -0.015 S 
BRANCH  16  17
ATOM     17  S   UNL     1      -8.683 -42.405  33.557  0.00  0.00    -0.001 S 
BRANCH  17  18
ATOM     18  C   UNL     1      -8.748 -41.454  35.054  0.00  0.00    +0.209 C 
ATOM     19  S   UNL     1     -10.157 -41.298  35.852  0.00  0.00    -0.003 S 
BRANCH  18  20
ATOM     20  O   UNL     1      -7.586 -40.861  35.513  0.00  0.00    -0.495 OA
ATOM     21  H   UNL     1      -6.787 -40.965  35.036  0.00  0.00    +0.293 HD
ENDBRANCH  18  20
ENDBRANCH  17  18
ENDBRANCH  16  17
ENDBRANCH  15  16
BRANCH  15  22
ATOM     22  S   UNL     1     -12.653 -41.731  32.807  0.00  0.00    -0.011 S 
BRANCH  22  23
ATOM     23  C   UNL     1     -14.181 -42.216  33.176  0.00  0.00    +0.209 C 
ATOM     24  S   UNL     1     -15.413 -41.127  33.448  0.00  0.00    -0.003 S 
BRANCH  23  25
ATOM     25  O   UNL     1     -14.614 -43.526  33.301  0.00  0.00    -0.495 OA
ATOM     26  H   UNL     1     -14.013 -44.233  33.171  0.00  0.00    +0.293 HD
ENDBRANCH  23  25
ENDBRANCH  22  23
ENDBRANCH  15  22
ENDBRANCH   1  15
TORSDOF 9
REMARK  Name = =
REMARK  9 active torsions:
REMARK  status: ('A' for Active; 'I' for Inactive)
REMARK    1  A    between atoms: C_1  and  C_8
REMARK    2  A    between atoms: C_1  and  S_15
REMARK    3  A    between atoms: S_15  and  S_17
REMARK    4  A    between atoms: S_15  and  S_22
REMARK    5  A    between atoms: S_17  and  S_18
REMARK    6  A    between atoms: S_18  and  C_19
REMARK    7  A    between atoms: C_19  and  O_21
REMARK    8  A    between atoms: S_22  and  C_23
REMARK    9  A    between atoms: C_23  and  O_25
REMARK                            x       y       z     vdW  Elec       q    Type
REMARK                         _______ _______ _______ _____ _____    ______ ____
ROOT
ATOM      1  H   UNK     1     -11.054 -40.736  31.395  0.00  0.00    +0.000 HD
ENDROOT
TORSDOF 0
