REMARK  Name = =
REMARK  1 active torsions:
REMARK  status: ('A' for Active; 'I' for Inactive)
REMARK    1  A    between atoms: N_3  and  N_4
REMARK                            x       y       z     vdW  Elec       q    Type
REMARK                         _______ _______ _______ _____ _____    ______ ____
ROOT
ATOM      1  C   UNL     1      56.948 146.282  40.860  0.00  0.00    +0.313 C 
ATOM      2  O   UNL     1      57.234 145.516  39.887  0.00  0.00    -0.264 OA
ATOM      3  N   UNL     1      55.577 146.388  41.220  0.00  0.00    -0.246 N 
ATOM      4  H   UNL     1      55.328 146.974  41.971  0.00  0.00    +0.169 HD
ENDROOT
BRANCH   3   5
ATOM      5  N   UNL     1      54.603 145.714  40.570  0.00  0.00    -0.254 NA
ATOM      6  H   UNL     1      55.016 145.155  39.824  0.00  0.00    +0.140 HD
ATOM      7  H   UNL     1      53.939 146.377  40.170  0.00  0.00    +0.140 HD
ENDBRANCH   3   5
TORSDOF 1
