REMARK  Name = =
REMARK  0 active torsions:
REMARK  status: ('A' for Active; 'I' for Inactive)
REMARK                            x       y       z     vdW  Elec       q    Type
REMARK                         _______ _______ _______ _____ _____    ______ ____
ROOT
ATOM      1  S   UNL     1      52.736 157.618  29.095  0.00  0.00    +0.013 S 
ATOM      2  N   UNL     1      51.934 155.947  29.074  0.00  0.00    -0.208 NA
ATOM      3  C   UNL     1      50.671 156.206  29.574  0.00  0.00    +0.108 C 
ATOM      4  C   UNL     1      50.418 157.476  29.898  0.00  0.00    +0.027 C 
ATOM      5  C   UNL     1      49.184 157.945  30.427  0.00  0.00    +0.002 C 
ATOM      6  C   UNL     1      49.019 159.259  30.728  0.00  0.00    +0.000 C 
ATOM      7  C   UNL     1      49.983 160.227  30.560  0.00  0.00    +0.001 C 
ATOM      8  C   UNL     1      51.178 159.774  30.049  0.00  0.00    +0.008 C 
ATOM      9  C   UNL     1      51.363 158.406  29.731  0.00  0.00    +0.049 C 
ENDROOT
TORSDOF 0
