REMARK  Name = =
REMARK  3 active torsions:
REMARK  status: ('A' for Active; 'I' for Inactive)
REMARK    1  A    between atoms: C_1  and  C_5
REMARK    2  A    between atoms: N_3  and  N_4
REMARK    3  A    between atoms: C_5  and  O_6
REMARK                            x       y       z     vdW  Elec       q    Type
REMARK                         _______ _______ _______ _____ _____    ______ ____
ROOT
ATOM      1  C   UNL     1      56.625 146.368  40.922  0.00  0.00    +0.265 C 
ATOM      2  O   UNL     1      57.055 145.244  40.558  0.00  0.00    -0.271 OA
ATOM      3  N   UNL     1      55.219 146.533  41.021  0.00  0.00    -0.251 N 
ATOM      4  H   UNL     1      54.863 147.406  41.305  0.00  0.00    +0.169 HD
ENDROOT
BRANCH   3   5
ATOM      5  N   UNL     1      54.312 145.492  40.727  0.00  0.00    -0.254 NA
ATOM      6  H   UNL     1      54.830 144.658  40.449  0.00  0.00    +0.140 HD
ATOM      7  H   UNL     1      53.699 145.781  39.965  0.00  0.00    +0.140 HD
ENDBRANCH   3   5
BRANCH   1   8
ATOM      8  C   UNL     1      57.599 147.456  41.227  0.00  0.00    +0.224 C 
BRANCH   8   9
ATOM      9  O   UNL     1      57.018 148.709  41.091  0.00  0.00    -0.374 OA
ATOM     10  H   UNL     1      57.674 149.394  41.295  0.00  0.00    +0.211 HD
ENDBRANCH   8   9
ENDBRANCH   1   8
TORSDOF 3
