REMARK  Name = =
REMARK  1 active torsions:
REMARK  status: ('A' for Active; 'I' for Inactive)
REMARK    1  A    between atoms: S_1  and  C_11
REMARK                            x       y       z     vdW  Elec       q    Type
REMARK                         _______ _______ _______ _____ _____    ______ ____
ROOT
ATOM      1  S   UNL     1      52.304 156.275  29.122  0.00  0.00    -0.093 S 
ATOM      2  N   UNL     1      50.783 155.270  29.435  0.00  0.00    -0.227 NA
ATOM      3  C   UNL     1      49.891 156.048  29.811  0.00  0.00    +0.106 C 
ATOM      4  C   UNL     1      50.158 157.432  29.927  0.00  0.00    +0.026 C 
ATOM      5  C   UNL     1      49.324 158.488  30.326  0.00  0.00    +0.002 C 
ATOM      6  C   UNL     1      49.772 159.782  30.375  0.00  0.00    +0.000 C 
ATOM      7  C   UNL     1      51.047 160.100  30.038  0.00  0.00    +0.001 C 
ATOM      8  C   UNL     1      51.900 159.097  29.642  0.00  0.00    +0.006 C 
ATOM      9  C   UNL     1      51.415 157.807  29.605  0.00  0.00    +0.030 C 
ATOM     10  H   UNL     1      53.486 155.985  29.729  0.00  0.00    +0.115 HD
ENDROOT
BRANCH   1  12
ATOM     11 BR   UNL     1      52.554 154.647  26.358  0.00  0.00    -0.042 Br
ATOM     12  C   UNL     1      52.811 156.204  27.407  0.00  0.00    +0.062 C 
ATOM     13  C   UNL     1      53.376 157.259  26.859  0.00  0.00    +0.014 C 
ENDBRANCH   1  12
TORSDOF 1
