REMARK  Name = =
REMARK  2 active torsions:
REMARK  status: ('A' for Active; 'I' for Inactive)
REMARK    1  A    between atoms: N_1  and  C_7
REMARK    2  A    between atoms: C_5  and  O_16
REMARK                            x       y       z     vdW  Elec       q    Type
REMARK                         _______ _______ _______ _____ _____    ______ ____
ROOT
ATOM      1  N   UNL     1      52.329 155.577  28.331  0.00  0.00    -0.172 N 
ATOM      2  C   UNL     1      52.768 155.976  27.053  0.00  0.00    +0.310 C 
ATOM      3  O   UNL     1      52.839 157.192  26.791  0.00  0.00    -0.252 OA
ATOM      4  N   UNL     1      53.123 155.035  26.072  0.00  0.00    -0.313 N 
ATOM      5  C   UNL     1      52.256 154.172  28.607  0.00  0.00    +0.409 C 
ATOM      6  O   UNL     1      52.569 153.306  27.747  0.00  0.00    -0.226 OA
ATOM      7  H   UNL     1      53.070 154.072  26.271  0.00  0.00    +0.146 HD
ATOM      8  H   UNL     1      53.425 155.338  25.185  0.00  0.00    +0.146 HD
ENDROOT
BRANCH   1   9
ATOM      9  C   UNL     1      51.949 156.483  29.383  0.00  0.00    +0.182 C 
ATOM     10  C   UNL     1      50.667 157.252  29.153  0.00  0.00    +0.108 C 
ATOM     11  N   UNL     1      51.498 158.442  29.386  0.00  0.00    -0.256 N 
ATOM     12  C   UNL     1      50.852 159.678  29.648  0.00  0.00    +0.063 C 
ATOM     13  C   UNL     1      49.651 159.645  30.220  0.00  0.00    -0.010 C 
ATOM     14  C   UNL     1      48.963 158.396  30.594  0.00  0.00    +0.029 C 
ATOM     15  C   UNL     1      49.761 157.159  30.387  0.00  0.00    +0.027 C 
ATOM     16  C   UNL     1      52.735 157.760  29.230  0.00  0.00    +0.250 C 
ATOM     17  O   UNL     1      53.942 157.984  29.051  0.00  0.00    -0.273 OA
ENDBRANCH   1   9
BRANCH   5  18
ATOM     18  O   UNL     1      51.834 153.681  29.842  0.00  0.00    -0.466 OA
ATOM     19  H   UNL     1      51.588 154.275  30.523  0.00  0.00    +0.297 HD
ENDBRANCH   5  18
TORSDOF 2
