REMARK  Name = =
REMARK  7 active torsions:
REMARK  status: ('A' for Active; 'I' for Inactive)
REMARK    1  A    between atoms: C_1  and  C_2
REMARK    2  A    between atoms: C_1  and  O_6
REMARK    3  A    between atoms: C_1  and  N_7
REMARK    4  A    between atoms: N_4  and  N_5
REMARK    5  A    between atoms: N_7  and  C_8
REMARK    6  A    between atoms: C_8  and  C_9
REMARK    7  A    between atoms: C_9  and  O_10
REMARK                            x       y       z     vdW  Elec       q    Type
REMARK                         _______ _______ _______ _____ _____    ______ ____
ROOT
ATOM      1  C   UNL     1      56.839 147.990  41.260  0.00  0.00    +0.266 C 
ENDROOT
BRANCH   1   2
ATOM      2  C   UNL     1      56.293 146.664  40.936  0.00  0.00    +0.280 C 
ATOM      3  O   UNL     1      57.061 145.767  40.522  0.00  0.00    -0.270 OA
ATOM      4  N   UNL     1      54.916 146.337  41.069  0.00  0.00    -0.250 N 
ATOM      5  H   UNL     1      54.268 147.005  41.390  0.00  0.00    +0.169 HD
BRANCH   4   6
ATOM      6  N   UNL     1      54.510 145.062  40.737  0.00  0.00    -0.254 NA
ATOM      7  H   UNL     1      55.316 144.518  40.428  0.00  0.00    +0.140 HD
ATOM      8  H   UNL     1      53.823 145.109  39.985  0.00  0.00    +0.140 HD
ENDBRANCH   4   6
ENDBRANCH   1   2
BRANCH   1   9
ATOM      9  O   UNL     1      58.209 147.981  41.022  0.00  0.00    -0.362 OA
ATOM     10  H   UNL     1      58.580 148.852  41.233  0.00  0.00    +0.212 HD
ENDBRANCH   1   9
BRANCH   1  11
ATOM     11  N   UNL     1      56.262 149.053  40.462  0.00  0.00    -0.181 NA
BRANCH  11  12
ATOM     12  C   UNL     1      55.318 149.849  41.218  0.00  0.00    +0.123 C 
BRANCH  12  13
ATOM     13  C   UNL     1      55.944 151.231  41.424  0.00  0.00    +0.156 C 
BRANCH  13  14
ATOM     14  O   UNL     1      57.132 151.017  42.128  0.00  0.00    -0.380 OA
ATOM     15  H   UNL     1      57.572 151.867  42.286  0.00  0.00    +0.211 HD
ENDBRANCH  13  14
ENDBRANCH  12  13
ENDBRANCH  11  12
ENDBRANCH   1  11
TORSDOF 7
