REMARK  Name = =
REMARK  8 active torsions:
REMARK  status: ('A' for Active; 'I' for Inactive)
REMARK    1  A    between atoms: N_1  and  C_2
REMARK    2  A    between atoms: N_1  and  C_7
REMARK    3  A    between atoms: N_1  and  C_13
REMARK    4  A    between atoms: C_7  and  C_8
REMARK    5  A    between atoms: C_7  and  O_12
REMARK    6  A    between atoms: N_10  and  N_11
REMARK    7  A    between atoms: C_13  and  C_14
REMARK    8  A    between atoms: C_14  and  O_15
REMARK                            x       y       z     vdW  Elec       q    Type
REMARK                         _______ _______ _______ _____ _____    ______ ____
ROOT
ATOM      1  N   UNL     1      54.525 152.602  25.365  0.00  0.00    -0.220 NA
ENDROOT
BRANCH   1   2
ATOM      2  C   UNL     1      53.749 152.997  26.454  0.00  0.00    +0.168 C 
ATOM      3  N   UNL     1      52.745 152.069  26.801  0.00  0.00    -0.276 NA
ATOM      4  C   UNL     1      51.680 152.695  27.519  0.00  0.00    +0.082 C 
ATOM      5  C   UNL     1      51.196 153.913  26.814  0.00  0.00    +0.077 C 
ATOM      6  S   UNL     1      52.745 154.502  26.069  0.00  0.00    -0.107 S 
ATOM      7  H   UNL     1      53.155 151.340  27.385  0.00  0.00    +0.125 HD
ENDBRANCH   1   2
BRANCH   1   8
ATOM      8  C   UNL     1      54.033 151.516  24.625  0.00  0.00    +0.254 C 
BRANCH   8   9
ATOM      9  C   UNL     1      54.093 150.188  25.263  0.00  0.00    +0.279 C 
ATOM     10  O   UNL     1      54.423 150.068  26.454  0.00  0.00    -0.270 OA
ATOM     11  N   UNL     1      53.753 149.071  24.475  0.00  0.00    -0.250 N 
ATOM     12  H   UNL     1      53.503 149.212  23.533  0.00  0.00    +0.169 HD
BRANCH  11  13
ATOM     13  N   UNL     1      53.758 147.773  24.982  0.00  0.00    -0.254 NA
ATOM     14  H   UNL     1      54.036 147.792  25.963  0.00  0.00    +0.140 HD
ATOM     15  H   UNL     1      54.418 147.204  24.453  0.00  0.00    +0.140 HD
ENDBRANCH  11  13
ENDBRANCH   8   9
BRANCH   8  16
ATOM     16  O   UNL     1      52.650 151.707  24.322  0.00  0.00    -0.363 OA
ATOM     17  H   UNL     1      52.323 150.950  23.811  0.00  0.00    +0.212 HD
ENDBRANCH   8  16
ENDBRANCH   1   8
BRANCH   1  18
ATOM     18  C   UNL     1      55.891 152.927  25.337  0.00  0.00    +0.108 C 
BRANCH  18  19
ATOM     19  C   UNL     1      56.693 152.231  26.390  0.00  0.00    +0.155 C 
BRANCH  19  20
ATOM     20  O   UNL     1      57.302 151.067  25.857  0.00  0.00    -0.381 OA
ATOM     21  H   UNL     1      57.818 150.626  26.550  0.00  0.00    +0.211 HD
ENDBRANCH  19  20
ENDBRANCH  18  19
ENDBRANCH   1  18
TORSDOF 8
