REMARK  Name = =
REMARK  3 active torsions:
REMARK  status: ('A' for Active; 'I' for Inactive)
REMARK    1  A    between atoms: C_11  and  N_13
REMARK    2  A    between atoms: C_14  and  O_16
REMARK    3  A    between atoms: N_17  and  O_18
REMARK                            x       y       z     vdW  Elec       q    Type
REMARK                         _______ _______ _______ _____ _____    ______ ____
ROOT
ATOM      1  C   UNL     1      52.426 154.845  26.877  0.00  0.00    +0.224 C 
ATOM      2  C   UNL     1      53.424 153.760  26.707  0.00  0.00    +0.122 C 
ATOM      3  N   UNL     1      53.004 153.589  25.301  0.00  0.00    -0.253 N 
ATOM      4  C   UNL     1      53.718 152.574  24.610  0.00  0.00    +0.063 C 
ATOM      5  C   UNL     1      54.318 151.577  25.243  0.00  0.00    -0.010 C 
ATOM      6  C   UNL     1      54.254 151.506  26.720  0.00  0.00    +0.029 C 
ATOM      7  C   UNL     1      53.220 152.426  27.327  0.00  0.00    +0.029 C 
ATOM      8  C   UNL     1      52.047 154.622  25.479  0.00  0.00    +0.264 C 
ATOM      9  O   UNL     1      51.191 155.125  24.671  0.00  0.00    -0.271 OA
ATOM     10  N   UNL     1      53.140 156.086  27.134  0.00  0.00    -0.190 N 
ATOM     11  C   UNL     1      53.139 156.632  28.459  0.00  0.00    +0.262 C 
ATOM     12  O   UNL     1      52.531 156.041  29.371  0.00  0.00    -0.310 OA
ATOM     13  C   UNL     1      53.843 156.811  26.154  0.00  0.00    +0.406 C 
ATOM     14  O   UNL     1      53.903 156.435  24.971  0.00  0.00    -0.226 OA
ATOM     15  N   UNL     1      51.311 154.599  27.749  0.00  0.00    -0.119 NA
ATOM     16  C   UNL     1      50.993 155.642  28.672  0.00  0.00    +0.204 C 
ATOM     17  C   UNL     1      50.148 155.429  29.650  0.00  0.00    +0.053 C 
ENDROOT
BRANCH  11  18
ATOM     18  N   UNL     1      53.823 157.827  28.726  0.00  0.00    -0.282 NA
ATOM     19  H   UNL     1      54.259 158.168  27.869  0.00  0.00    +0.123 HD
ATOM     20  H   UNL     1      54.542 157.657  29.429  0.00  0.00    +0.123 HD
ENDBRANCH  11  18
BRANCH  13  21
ATOM     21  O   UNL     1      54.508 157.987  26.459  0.00  0.00    -0.466 OA
ATOM     22  H   UNL     1      54.497 158.318  27.336  0.00  0.00    +0.297 HD
ENDBRANCH  13  21
BRANCH  15  23
ATOM     23  O   UNL     1      50.560 153.501  27.772  0.00  0.00    -0.307 OA
ATOM     24  H   UNL     1      50.879 152.877  27.102  0.00  0.00    +0.237 HD
ENDBRANCH  15  23
TORSDOF 3
