REMARK  Name = =
REMARK  12 active torsions:
REMARK  status: ('A' for Active; 'I' for Inactive)
REMARK    1  A    between atoms: N_1  and  C_2
REMARK    2  A    between atoms: N_1  and  C_13
REMARK    3  A    between atoms: N_1  and  C_19
REMARK    4  A    between atoms: C_2  and  C_7
REMARK    5  A    between atoms: N_8  and  N_9
REMARK    6  A    between atoms: N_9  and  C_10
REMARK    7  A    between atoms: C_10  and  N_12
REMARK    8  A    between atoms: C_13  and  C_14
REMARK    9  A    between atoms: C_13  and  O_18
REMARK   10  A    between atoms: N_16  and  N_17
REMARK   11  A    between atoms: C_19  and  C_20
REMARK   12  A    between atoms: C_20  and  O_21
REMARK                            x       y       z     vdW  Elec       q    Type
REMARK                         _______ _______ _______ _____ _____    ______ ____
ROOT
ATOM      1  N   UNL     1      52.126 153.318  27.589  0.00  0.00    -0.218 NA
ENDROOT
BRANCH   1   2
ATOM      2  C   UNL     1      53.185 153.461  26.736  0.00  0.00    +0.172 C 
ATOM      3  N   UNL     1      54.246 152.420  27.100  0.00  0.00    -0.274 NA
ATOM      4  C   UNL     1      55.093 152.377  25.940  0.00  0.00    +0.082 C 
ATOM      5  C   UNL     1      54.229 151.792  24.824  0.00  0.00    +0.078 C 
ATOM      6  S   UNL     1      52.726 152.782  25.066  0.00  0.00    -0.105 S 
ATOM      7  H   UNL     1      53.819 151.510  27.272  0.00  0.00    +0.126 HD
BRANCH   2   8
ATOM      8  C   UNL     1      53.900 154.699  26.456  0.00  0.00    +0.131 C 
ATOM      9  N   UNL     1      53.816 155.227  25.259  0.00  0.00    -0.179 NA
BRANCH   9  10
ATOM     10  N   UNL     1      54.330 156.283  24.726  0.00  0.00    -0.218 N 
ATOM     11  H   UNL     1      53.457 156.735  24.775  0.00  0.00    +0.176 HD
BRANCH  10  12
ATOM     12  C   UNL     1      54.865 157.367  24.177  0.00  0.00    +0.147 C 
ATOM     13  S   UNL     1      56.377 157.980  24.705  0.00  0.00    -0.017 S 
BRANCH  12  14
ATOM     14  N   UNL     1      54.348 158.236  23.168  0.00  0.00    -0.339 N 
ATOM     15  H   UNL     1      54.877 159.009  22.866  0.00  0.00    +0.144 HD
ATOM     16  H   UNL     1      53.462 158.062  22.775  0.00  0.00    +0.144 HD
ENDBRANCH  12  14
ENDBRANCH  10  12
ENDBRANCH   9  10
ENDBRANCH   2   8
ENDBRANCH   1   2
BRANCH   1  17
ATOM     17  C   UNL     1      51.494 154.277  28.323  0.00  0.00    +0.255 C 
BRANCH  17  18
ATOM     18  C   UNL     1      52.075 155.490  28.846  0.00  0.00    +0.279 C 
ATOM     19  O   UNL     1      53.278 155.672  29.107  0.00  0.00    -0.270 OA
ATOM     20  N   UNL     1      51.226 156.631  29.120  0.00  0.00    -0.250 N 
ATOM     21  H   UNL     1      50.263 156.541  28.934  0.00  0.00    +0.169 HD
BRANCH  20  22
ATOM     22  N   UNL     1      51.668 157.819  29.617  0.00  0.00    -0.254 NA
ATOM     23  H   UNL     1      52.677 157.773  29.762  0.00  0.00    +0.140 HD
ATOM     24  H   UNL     1      51.205 158.009  30.506  0.00  0.00    +0.140 HD
ENDBRANCH  20  22
ENDBRANCH  17  18
BRANCH  17  25
ATOM     25  O   UNL     1      50.251 154.622  27.732  0.00  0.00    -0.363 OA
ATOM     26  H   UNL     1      49.833 153.825  27.369  0.00  0.00    +0.212 HD
ENDBRANCH  17  25
ENDBRANCH   1  17
BRANCH   1  27
ATOM     27  C   UNL     1      51.989 151.971  28.165  0.00  0.00    +0.109 C 
BRANCH  27  28
ATOM     28  C   UNL     1      51.211 151.007  27.330  0.00  0.00    +0.155 C 
BRANCH  28  29
ATOM     29  O   UNL     1      51.644 149.725  27.719  0.00  0.00    -0.381 OA
ATOM     30  H   UNL     1      51.169 149.053  27.205  0.00  0.00    +0.211 HD
ENDBRANCH  28  29
ENDBRANCH  27  28
ENDBRANCH   1  27
TORSDOF 12
