REMARK  Name = =
REMARK  10 active torsions:
REMARK  status: ('A' for Active; 'I' for Inactive)
REMARK    1  A    between atoms: N_1  and  C_2
REMARK    2  A    between atoms: N_1  and  O_18
REMARK    3  A    between atoms: N_1  and  C_19
REMARK    4  A    between atoms: C_2  and  N_11
REMARK    5  A    between atoms: C_15  and  O_17
REMARK    6  A    between atoms: C_19  and  P_21
REMARK    7  A    between atoms: P_21  and  O_22
REMARK    8  A    between atoms: P_21  and  O_24
REMARK    9  A    between atoms: O_22  and  O_25
REMARK   10  A    between atoms: O_25  and  C_26
REMARK                            x       y       z     vdW  Elec       q    Type
REMARK                         _______ _______ _______ _____ _____    ______ ____
ROOT
ATOM      1  N   UNL     1      52.883 154.073  27.736  0.00  0.00    -0.215 N 
ENDROOT
BRANCH   1   2
ATOM      2  C   UNL     1      53.309 153.970  26.383  0.00  0.00    +0.246 C 
ATOM      3  C   UNL     1      54.216 154.988  25.823  0.00  0.00    +0.128 C 
ATOM      4  N   UNL     1      53.196 155.242  24.797  0.00  0.00    -0.252 N 
ATOM      5  C   UNL     1      53.613 156.165  23.796  0.00  0.00    +0.063 C 
ATOM      6  C   UNL     1      54.415 157.164  24.105  0.00  0.00    -0.010 C 
ATOM      7  C   UNL     1      54.900 157.358  25.480  0.00  0.00    +0.029 C 
ATOM      8  C   UNL     1      54.464 156.292  26.463  0.00  0.00    +0.029 C 
ATOM      9  C   UNL     1      52.246 154.369  25.390  0.00  0.00    +0.270 C 
ATOM     10  O   UNL     1      51.041 154.102  25.132  0.00  0.00    -0.271 OA
BRANCH   2  11
ATOM     11  N   UNL     1      53.848 152.652  26.004  0.00  0.00    -0.155 N 
ATOM     12  C   UNL     1      53.141 151.442  26.114  0.00  0.00    +0.311 C 
ATOM     13  O   UNL     1      53.708 150.355  25.767  0.00  0.00    -0.252 OA
ATOM     14  N   UNL     1      51.819 151.304  26.587  0.00  0.00    -0.313 N 
ATOM     15  C   UNL     1      55.145 152.613  25.423  0.00  0.00    +0.410 C 
ATOM     16  O   UNL     1      55.672 151.490  25.096  0.00  0.00    -0.226 OA
ATOM     17  H   UNL     1      51.314 152.098  26.874  0.00  0.00    +0.146 HD
ATOM     18  H   UNL     1      51.402 150.413  26.630  0.00  0.00    +0.146 HD
BRANCH  15  19
ATOM     19  O   UNL     1      55.941 153.705  25.154  0.00  0.00    -0.466 OA
ATOM     20  H   UNL     1      55.638 154.568  25.359  0.00  0.00    +0.297 HD
ENDBRANCH  15  19
ENDBRANCH   2  11
ENDBRANCH   1   2
BRANCH   1  21
ATOM     21  O   UNL     1      53.685 153.679  28.748  0.00  0.00    -0.284 OA
ATOM     22  H   UNL     1      53.232 153.822  29.594  0.00  0.00    +0.244 HD
ENDBRANCH   1  21
BRANCH   1  23
ATOM     23  C   UNL     1      51.622 154.595  28.092  0.00  0.00    +0.123 C 
ATOM     24  C   UNL     1      50.550 154.304  27.415  0.00  0.00    +0.025 C 
BRANCH  23  25
ATOM     25  P   UNL     1      51.427 155.698  29.502  0.00  0.00    +0.186 P 
ATOM     26  H   UNL     1      51.427 155.971  30.855  0.00  0.00    +0.120 HD
BRANCH  25  27
ATOM     27  O   UNL     1      49.741 155.785  29.400  0.00  0.00    -0.350 OA
ATOM     28  H   UNL     1      49.463 155.618  28.486  0.00  0.00    +0.217 HD
ENDBRANCH  25  27
BRANCH  25  29
ATOM     29  O   UNL     1      52.781 156.195  29.012  0.00  0.00    -0.142 OA
BRANCH  29  30
ATOM     30  O   UNL     1      51.571 157.305  28.935  0.00  0.00    -0.329 OA
BRANCH  30  31
ATOM     31  C   UNL     1      51.070 158.318  29.722  0.00  0.00    +0.184 C 
ATOM     32  C   UNL     1      49.796 158.336  30.225  0.00  0.00    +0.053 C 
ATOM     33  C   UNL     1      49.393 159.394  31.001  0.00  0.00    +0.071 C 
ATOM     34  C   UNL     1      50.236 160.458  31.296  0.00  0.00    +0.068 C 
ATOM     35  C   UNL     1      51.506 160.428  30.788  0.00  0.00    +0.015 C 
ATOM     36  C   UNL     1      51.906 159.372  30.016  0.00  0.00    +0.042 C 
ATOM     37 CL   UNL     1      49.758 161.812  32.275  0.00  0.00    -0.081 Cl
ATOM     38 CL   UNL     1      47.767 159.467  31.672  0.00  0.00    -0.081 Cl
ENDBRANCH  30  31
ENDBRANCH  29  30
ENDBRANCH  25  29
ENDBRANCH  23  25
ENDBRANCH   1  23
TORSDOF 10
REMARK  Name = =
REMARK  10 active torsions:
REMARK  status: ('A' for Active; 'I' for Inactive)
REMARK    1  A    between atoms: N_1  and  C_2
REMARK    2  A    between atoms: N_1  and  O_18
REMARK    3  A    between atoms: N_1  and  C_19
REMARK    4  A    between atoms: C_2  and  N_11
REMARK    5  A    between atoms: C_15  and  O_17
REMARK    6  A    between atoms: C_19  and  P_21
REMARK    7  A    between atoms: P_21  and  O_22
REMARK    8  A    between atoms: P_21  and  O_24
REMARK    9  A    between atoms: O_22  and  O_25
REMARK   10  A    between atoms: O_25  and  C_26
REMARK                            x       y       z     vdW  Elec       q    Type
REMARK                         _______ _______ _______ _____ _____    ______ ____
ROOT
ATOM      1  O   HOH     1      51.748 154.850  30.901  0.00  0.00    -0.253 OA
ATOM      2  H   HOH     0      52.718 154.850  30.901  0.00  0.00    +0.253 HD
ENDROOT
TORSDOF 0
