REMARK  Name = =
REMARK  14 active torsions:
REMARK  status: ('A' for Active; 'I' for Inactive)
REMARK    1  A    between atoms: C_1  and  C_6
REMARK    2  A    between atoms: C_1  and  N_15
REMARK    3  A    between atoms: C_6  and  S_12
REMARK    4  A    between atoms: N_7  and  N_8
REMARK    5  A    between atoms: N_8  and  C_9
REMARK    6  A    between atoms: C_9  and  N_11
REMARK    7  A    between atoms: S_12  and  C_13
REMARK    8  A    between atoms: N_15  and  C_16
REMARK    9  A    between atoms: N_15  and  C_22
REMARK   10  A    between atoms: C_16  and  C_17
REMARK   11  A    between atoms: C_16  and  O_21
REMARK   12  A    between atoms: N_19  and  N_20
REMARK   13  A    between atoms: C_22  and  C_23
REMARK   14  A    between atoms: C_23  and  O_24
REMARK                            x       y       z     vdW  Elec       q    Type
REMARK                         _______ _______ _______ _____ _____    ______ ____
ROOT
ATOM      1  C   UNL     1      52.547 154.485  28.083  0.00  0.00    +0.177 C 
ATOM      2  N   UNL     1      52.536 154.953  29.393  0.00  0.00    -0.274 NA
ATOM      3  C   UNL     1      51.292 154.804  30.040  0.00  0.00    +0.082 C 
ATOM      4  C   UNL     1      50.161 155.116  29.147  0.00  0.00    +0.078 C 
ATOM      5  S   UNL     1      50.791 154.622  27.527  0.00  0.00    -0.104 S 
ATOM      6  H   UNL     1      52.776 155.944  29.382  0.00  0.00    +0.126 HD
ENDROOT
BRANCH   1   7
ATOM      7  C   UNL     1      53.267 155.486  27.205  0.00  0.00    +0.145 C 
ATOM      8  N   UNL     1      53.900 155.037  26.184  0.00  0.00    -0.174 NA
BRANCH   8   9
ATOM      9  N   UNL     1      54.608 155.811  25.287  0.00  0.00    -0.218 N 
ATOM     10  H   UNL     1      55.588 155.714  25.299  0.00  0.00    +0.176 HD
BRANCH   9  11
ATOM     11  C   UNL     1      54.076 156.729  24.352  0.00  0.00    +0.147 C 
ATOM     12  S   UNL     1      55.079 157.714  23.478  0.00  0.00    -0.017 S 
BRANCH  11  13
ATOM     13  N   UNL     1      52.697 156.871  24.112  0.00  0.00    -0.339 N 
ATOM     14  H   UNL     1      52.052 156.312  24.602  0.00  0.00    +0.144 HD
ATOM     15  H   UNL     1      52.377 157.529  23.454  0.00  0.00    +0.144 HD
ENDBRANCH  11  13
ENDBRANCH   9  11
ENDBRANCH   8   9
BRANCH   7  16
ATOM     16  S   UNL     1      53.220 157.237  27.542  0.00  0.00    -0.022 S 
BRANCH  16  17
ATOM     17  C   UNL     1      51.978 157.707  28.704  0.00  0.00    +0.272 C 
ATOM     18  O   UNL     1      52.222 157.979  29.870  0.00  0.00    -0.275 OA
ENDBRANCH  16  17
ENDBRANCH   7  16
ENDBRANCH   1   7
BRANCH   1  19
ATOM     19  N   UNL     1      53.039 153.172  27.890  0.00  0.00    -0.218 NA
BRANCH  19  20
ATOM     20  C   UNL     1      52.213 152.200  27.343  0.00  0.00    +0.255 C 
BRANCH  20  21
ATOM     21  C   UNL     1      52.742 151.395  26.221  0.00  0.00    +0.279 C 
ATOM     22  O   UNL     1      52.431 150.156  26.200  0.00  0.00    -0.270 OA
ATOM     23  N   UNL     1      53.556 151.892  25.179  0.00  0.00    -0.250 N 
ATOM     24  H   UNL     1      53.829 152.837  25.144  0.00  0.00    +0.169 HD
BRANCH  23  25
ATOM     25  N   UNL     1      53.960 150.968  24.189  0.00  0.00    -0.254 NA
ATOM     26  H   UNL     1      53.575 150.048  24.405  0.00  0.00    +0.140 HD
ATOM     27  H   UNL     1      54.978 150.914  24.169  0.00  0.00    +0.140 HD
ENDBRANCH  23  25
ENDBRANCH  20  21
BRANCH  20  28
ATOM     28  O   UNL     1      51.600 151.337  28.240  0.00  0.00    -0.363 OA
ATOM     29  H   UNL     1      51.050 150.703  27.754  0.00  0.00    +0.212 HD
ENDBRANCH  20  28
ENDBRANCH  19  20
BRANCH  19  30
ATOM     30  C   UNL     1      54.286 152.927  28.425  0.00  0.00    +0.109 C 
BRANCH  30  31
ATOM     31  C   UNL     1      54.483 152.439  29.801  0.00  0.00    +0.155 C 
BRANCH  31  32
ATOM     32  O   UNL     1      55.891 152.490  30.014  0.00  0.00    -0.381 OA
ATOM     33  H   UNL     1      56.094 152.179  30.910  0.00  0.00    +0.211 HD
ENDBRANCH  31  32
ENDBRANCH  30  31
ENDBRANCH  19  30
ENDBRANCH   1  19
TORSDOF 14
