REMARK  Name = =
REMARK  15 active torsions:
REMARK  status: ('A' for Active; 'I' for Inactive)
REMARK    1  A    between atoms: C_1  and  C_6
REMARK    2  A    between atoms: C_1  and  N_23
REMARK    3  A    between atoms: C_6  and  S_12
REMARK    4  A    between atoms: N_7  and  N_8
REMARK    5  A    between atoms: N_8  and  C_9
REMARK    6  A    between atoms: C_9  and  N_11
REMARK    7  A    between atoms: S_12  and  C_13
REMARK    8  A    between atoms: C_13  and  C_15
REMARK    9  A    between atoms: N_23  and  C_24
REMARK   10  A    between atoms: N_23  and  C_30
REMARK   11  A    between atoms: C_24  and  C_25
REMARK   12  A    between atoms: C_24  and  O_29
REMARK   13  A    between atoms: N_27  and  N_28
REMARK   14  A    between atoms: C_30  and  C_31
REMARK   15  A    between atoms: C_31  and  O_32
REMARK                            x       y       z     vdW  Elec       q    Type
REMARK                         _______ _______ _______ _____ _____    ______ ____
ROOT
ATOM      1  C   UNL     1      53.069 153.470  26.988  0.00  0.00    +0.177 C 
ATOM      2  N   UNL     1      54.091 153.241  27.950  0.00  0.00    -0.274 NA
ATOM      3  C   UNL     1      53.669 152.974  29.240  0.00  0.00    +0.082 C 
ATOM      4  C   UNL     1      52.320 152.370  29.357  0.00  0.00    +0.078 C 
ATOM      5  S   UNL     1      51.540 152.930  27.816  0.00  0.00    -0.104 S 
ATOM      6  H   UNL     1      54.680 154.073  27.982  0.00  0.00    +0.126 HD
ENDROOT
BRANCH   1   7
ATOM      7  C   UNL     1      52.939 154.911  26.723  0.00  0.00    +0.145 C 
ATOM      8  N   UNL     1      53.891 155.498  26.133  0.00  0.00    -0.174 NA
BRANCH   8   9
ATOM      9  N   UNL     1      54.120 156.765  25.732  0.00  0.00    -0.218 N 
ATOM     10  H   UNL     1      54.024 157.516  26.361  0.00  0.00    +0.176 HD
BRANCH   9  11
ATOM     11  C   UNL     1      54.507 156.995  24.366  0.00  0.00    +0.147 C 
ATOM     12  S   UNL     1      55.039 155.761  23.423  0.00  0.00    -0.017 S 
BRANCH  11  13
ATOM     13  N   UNL     1      54.445 158.277  23.782  0.00  0.00    -0.339 N 
ATOM     14  H   UNL     1      54.132 159.045  24.312  0.00  0.00    +0.144 HD
ATOM     15  H   UNL     1      54.715 158.404  22.844  0.00  0.00    +0.144 HD
ENDBRANCH  11  13
ENDBRANCH   9  11
ENDBRANCH   8   9
BRANCH   7  16
ATOM     16  S   UNL     1      51.518 155.892  27.080  0.00  0.00    -0.026 S 
BRANCH  16  17
ATOM     17  C   UNL     1      51.206 156.140  28.781  0.00  0.00    +0.227 C 
ATOM     18  O   UNL     1      51.108 155.069  29.508  0.00  0.00    -0.279 OA
BRANCH  17  19
ATOM     19  C   UNL     1      51.040 157.411  29.465  0.00  0.00    +0.046 C 
ATOM     20  C   UNL     1      49.877 157.709  30.152  0.00  0.00    +0.016 C 
ATOM     21  C   UNL     1      49.725 158.886  30.854  0.00  0.00    +0.068 C 
ATOM     22  C   UNL     1      50.737 159.821  30.899  0.00  0.00    +0.068 C 
ATOM     23  C   UNL     1      51.902 159.540  30.220  0.00  0.00    +0.012 C 
ATOM     24  C   UNL     1      52.035 158.353  29.521  0.00  0.00    +0.005 C 
ATOM     25 CL   UNL     1      50.546 161.326  31.796  0.00  0.00    -0.081 Cl
ATOM     26 CL   UNL     1      48.238 159.241  31.719  0.00  0.00    -0.081 Cl
ENDBRANCH  17  19
ENDBRANCH  16  17
ENDBRANCH   7  16
ENDBRANCH   1   7
BRANCH   1  27
ATOM     27  N   UNL     1      53.222 152.616  25.891  0.00  0.00    -0.218 NA
BRANCH  27  28
ATOM     28  C   UNL     1      54.118 152.881  24.858  0.00  0.00    +0.255 C 
BRANCH  28  29
ATOM     29  C   UNL     1      55.545 152.991  25.180  0.00  0.00    +0.279 C 
ATOM     30  O   UNL     1      56.275 153.963  24.858  0.00  0.00    -0.270 OA
ATOM     31  N   UNL     1      56.218 151.953  25.912  0.00  0.00    -0.250 N 
ATOM     32  H   UNL     1      55.700 151.164  26.192  0.00  0.00    +0.169 HD
BRANCH  31  33
ATOM     33  N   UNL     1      57.577 152.014  26.244  0.00  0.00    -0.254 NA
ATOM     34  H   UNL     1      57.975 152.883  25.889  0.00  0.00    +0.140 HD
ATOM     35  H   UNL     1      58.065 151.221  25.827  0.00  0.00    +0.140 HD
ENDBRANCH  31  33
ENDBRANCH  28  29
BRANCH  28  36
ATOM     36  O   UNL     1      53.973 151.915  23.874  0.00  0.00    -0.363 OA
ATOM     37  H   UNL     1      54.595 152.094  23.151  0.00  0.00    +0.212 HD
ENDBRANCH  28  36
ENDBRANCH  27  28
BRANCH  27  38
ATOM     38  C   UNL     1      52.765 151.286  26.027  0.00  0.00    +0.109 C 
BRANCH  38  39
ATOM     39  C   UNL     1      53.443 150.267  25.150  0.00  0.00    +0.155 C 
BRANCH  39  40
ATOM     40  O   UNL     1      52.995 148.962  25.486  0.00  0.00    -0.381 OA
ATOM     41  H   UNL     1      53.436 148.312  24.917  0.00  0.00    +0.211 HD
ENDBRANCH  39  40
ENDBRANCH  38  39
ENDBRANCH  27  38
ENDBRANCH   1  27
TORSDOF 15
