REMARK  Name = =
REMARK  8 active torsions:
REMARK  status: ('A' for Active; 'I' for Inactive)
REMARK    1  A    between atoms: C_7  and  S_21
REMARK    2  A    between atoms: C_10  and  S_16
REMARK    3  A    between atoms: O_12  and  O_15
REMARK    4  A    between atoms: S_16  and  P_17
REMARK    5  A    between atoms: P_17  and  O_19
REMARK    6  A    between atoms: P_17  and  O_20
REMARK    7  A    between atoms: S_21  and  C_22
REMARK    8  A    between atoms: C_22  and  N_24
REMARK                            x       y       z     vdW  Elec       q    Type
REMARK                         _______ _______ _______ _____ _____    ______ ____
ROOT
ATOM      1  C   UNL     1      -3.883  -1.953  30.897  0.00  0.00    +0.158 C 
ATOM      2  C   UNL     1      -3.024  -1.990  29.817  0.00  0.00    +0.086 C 
ATOM      3  N   UNL     1      -2.886  -0.801  29.025  0.00  0.00    -0.327 N 
ATOM      4  C   UNL     1      -3.363   0.473  29.453  0.00  0.00    +0.135 C 
ATOM      5  C   UNL     1      -4.007   0.479  30.802  0.00  0.00    +0.227 C 
ATOM      6  O   UNL     1      -4.568  -0.766  31.156  0.00  0.00    -0.472 OA
ATOM      7  C   UNL     1      -2.293  -3.130  29.473  0.00  0.00    +0.047 C 
ATOM      8  C   UNL     1      -2.486  -4.218  30.287  0.00  0.00    +0.008 C 
ATOM      9  C   UNL     1      -3.335  -4.227  31.378  0.00  0.00    +0.010 C 
ATOM     10  C   UNL     1      -4.033  -3.092  31.679  0.00  0.00    +0.069 C 
ATOM     11  H   UNL     1      -2.443  -0.868  28.148  0.00  0.00    +0.147 HD
ENDROOT
BRANCH  10  12
ATOM     12  S   UNL     1      -5.117  -2.964  33.053  0.00  0.00    -0.034 S 
BRANCH  12  13
ATOM     13  P   UNL     1      -6.972  -2.123  32.529  0.00  0.00    +0.229 P 
ATOM     14  S   UNL     1      -6.973  -0.466  33.045  0.00  0.00    +0.003 S 
BRANCH  13  15
ATOM     15  O   UNL     1      -7.281  -2.124  30.889  0.00  0.00    -0.339 OA
ATOM     16  H   UNL     1      -6.561  -1.669  30.424  0.00  0.00    +0.218 HD
ENDBRANCH  13  15
BRANCH  13  17
ATOM     17  O   UNL     1      -8.245  -2.925  33.329  0.00  0.00    -0.339 OA
ATOM     18  H   UNL     1      -8.075  -2.930  34.284  0.00  0.00    +0.218 HD
ENDBRANCH  13  17
ENDBRANCH  12  13
ENDBRANCH  10  12
BRANCH   7  19
ATOM     19  S   UNL     1      -1.243  -3.023  28.079  0.00  0.00    -0.064 S 
BRANCH  19  20
ATOM     20  C   UNL     1      -0.215  -4.372  27.718  0.00  0.00    +0.109 C 
ATOM     21  S   UNL     1      -0.449  -5.908  28.185  0.00  0.00    -0.028 S 
BRANCH  20  22
ATOM     22  N   UNL     1       0.954  -4.134  26.940  0.00  0.00    -0.347 N 
ATOM     23  H   UNL     1       1.158  -3.224  26.623  0.00  0.00    +0.143 HD
ATOM     24  H   UNL     1       1.558  -4.879  26.719  0.00  0.00    +0.143 HD
ENDBRANCH  20  22
ENDBRANCH  19  20
ENDBRANCH   7  19
TORSDOF 7
REMARK  Name = =
REMARK  8 active torsions:
REMARK  status: ('A' for Active; 'I' for Inactive)
REMARK    1  A    between atoms: C_7  and  S_21
REMARK    2  A    between atoms: C_10  and  S_16
REMARK    3  A    between atoms: O_12  and  O_15
REMARK    4  A    between atoms: S_16  and  P_17
REMARK    5  A    between atoms: P_17  and  O_19
REMARK    6  A    between atoms: P_17  and  O_20
REMARK    7  A    between atoms: S_21  and  C_22
REMARK    8  A    between atoms: C_22  and  N_24
REMARK                            x       y       z     vdW  Elec       q    Type
REMARK                         _______ _______ _______ _____ _____    ______ ____
ROOT
ATOM      1  P   UNL     1      -3.470  -5.617  32.466  0.00  0.00    +0.000 P 
ENDROOT
TORSDOF 0
REMARK  Name = =
REMARK  8 active torsions:
REMARK  status: ('A' for Active; 'I' for Inactive)
REMARK    1  A    between atoms: C_7  and  S_21
REMARK    2  A    between atoms: C_10  and  S_16
REMARK    3  A    between atoms: O_12  and  O_15
REMARK    4  A    between atoms: S_16  and  P_17
REMARK    5  A    between atoms: P_17  and  O_19
REMARK    6  A    between atoms: P_17  and  O_20
REMARK    7  A    between atoms: S_21  and  C_22
REMARK    8  A    between atoms: C_22  and  N_24
REMARK                            x       y       z     vdW  Elec       q    Type
REMARK                         _______ _______ _______ _____ _____    ______ ____
ROOT
ATOM      1  O   UNL     1      -3.842  -6.884  31.777  0.00  0.00    -0.253 OA
ATOM      2  H   UNL     1      -3.132  -6.241  31.628  0.00  0.00    +0.253 HD
ENDROOT
BRANCH   1   3
ATOM      3  O   UNL     1      -4.986  -6.220  32.740  0.00  0.00    -0.253 OA
ATOM      4  H   UNL     1      -5.696  -6.863  32.889  0.00  0.00    +0.253 HD
ENDBRANCH   1   3
TORSDOF 1
REMARK  Name = =
REMARK  8 active torsions:
REMARK  status: ('A' for Active; 'I' for Inactive)
REMARK    1  A    between atoms: C_7  and  S_21
REMARK    2  A    between atoms: C_10  and  S_16
REMARK    3  A    between atoms: O_12  and  O_15
REMARK    4  A    between atoms: S_16  and  P_17
REMARK    5  A    between atoms: P_17  and  O_19
REMARK    6  A    between atoms: P_17  and  O_20
REMARK    7  A    between atoms: S_21  and  C_22
REMARK    8  A    between atoms: C_22  and  N_24
REMARK                            x       y       z     vdW  Elec       q    Type
REMARK                         _______ _______ _______ _____ _____    ______ ____
ROOT
ATOM      1  O   HOH     1      -2.207  -6.598  33.041  0.00  0.00    -0.253 OA
ATOM      2  H   HOH     0      -1.237  -6.598  33.041  0.00  0.00    +0.253 HD
ENDROOT
TORSDOF 0
REMARK  Name = =
REMARK  8 active torsions:
REMARK  status: ('A' for Active; 'I' for Inactive)
REMARK    1  A    between atoms: C_7  and  S_21
REMARK    2  A    between atoms: C_10  and  S_16
REMARK    3  A    between atoms: O_12  and  O_15
REMARK    4  A    between atoms: S_16  and  P_17
REMARK    5  A    between atoms: P_17  and  O_19
REMARK    6  A    between atoms: P_17  and  O_20
REMARK    7  A    between atoms: S_21  and  C_22
REMARK    8  A    between atoms: C_22  and  N_24
REMARK                            x       y       z     vdW  Elec       q    Type
REMARK                         _______ _______ _______ _____ _____    ______ ____
ROOT
ATOM      1  O   HOH     1      -2.974  -5.173  34.049  0.00  0.00    -0.253 OA
ATOM      2  H   HOH     0      -2.004  -5.173  34.049  0.00  0.00    +0.253 HD
ENDROOT
TORSDOF 0
