REMARK  Name = =
REMARK  0 active torsions:
REMARK  status: ('A' for Active; 'I' for Inactive)
REMARK                            x       y       z     vdW  Elec       q    Type
REMARK                         _______ _______ _______ _____ _____    ______ ____
ROOT
ATOM      1  C   UNL     1      51.948 155.458  28.351  0.00  0.00    +0.207 C 
ATOM      2  N   UNL     1      53.184 155.019  27.975  0.00  0.00    -0.108 NA
ATOM      3  N   UNL     1      53.096 153.722  27.782  0.00  0.00    -0.025 NA
ATOM      4  N   UNL     1      51.850 153.364  28.029  0.00  0.00    -0.055 NA
ATOM      5  N   UNL     1      51.128 154.399  28.377  0.00  0.00    -0.197 N 
ATOM      6  H   UNL     1      50.172 154.399  28.611  0.00  0.00    +0.178 HD
ENDROOT
TORSDOF 0
