REMARK  Name = =
REMARK  1 active torsions:
REMARK  status: ('A' for Active; 'I' for Inactive)
REMARK    1  A    between atoms: C_1  and  C_8
REMARK                            x       y       z     vdW  Elec       q    Type
REMARK                         _______ _______ _______ _____ _____    ______ ____
ROOT
ATOM      1  C   UNL     1      51.992 156.927  29.443  0.00  0.00    +0.197 C 
ATOM      2  O   UNL     1      52.168 158.256  29.201  0.00  0.00    -0.336 OA
ATOM      3  C   UNL     1      51.690 159.063  30.231  0.00  0.00    +0.212 C 
ATOM      4  C   UNL     1      50.225 158.835  30.259  0.00  0.00    +0.203 C 
ATOM      5  O   UNL     1      49.355 159.730  30.300  0.00  0.00    -0.289 OA
ATOM      6  C   UNL     1      49.792 157.458  30.236  0.00  0.00    +0.038 C 
ATOM      7  C   UNL     1      50.629 156.524  29.846  0.00  0.00    +0.014 C 
ENDROOT
BRANCH   1   8
ATOM      8  C   UNL     1      52.311 156.176  28.177  0.00  0.00    +0.189 A 
ATOM      9  N   UNL     1      53.121 156.603  27.177  0.00  0.00    -0.110 NA
ATOM     10  N   UNL     1      53.147 155.674  26.250  0.00  0.00    -0.023 NA
ATOM     11  N   UNL     1      52.386 154.657  26.606  0.00  0.00    -0.047 NA
ATOM     12  N   UNL     1      51.876 154.976  27.794  0.00  0.00    -0.240 N 
ATOM     13  H   UNL     1      51.265 154.407  28.315  0.00  0.00    +0.192 HD
ENDBRANCH   1   8
TORSDOF 1
