REMARK  Name = =
REMARK  2 active torsions:
REMARK  status: ('A' for Active; 'I' for Inactive)
REMARK    1  A    between atoms: C_1  and  C_8
REMARK    2  A    between atoms: C_1  and  C_16
REMARK                            x       y       z     vdW  Elec       q    Type
REMARK                         _______ _______ _______ _____ _____    ______ ____
ROOT
ATOM      1  C   UNL     1      52.110 156.793  29.061  0.00  0.00    +0.183 C 
ATOM      2  O   UNL     1      52.958 156.948  30.113  0.00  0.00    -0.335 OA
ATOM      3  C   UNL     1      54.199 157.401  29.898  0.00  0.00    +0.212 C 
ATOM      4  C   UNL     1      54.380 158.380  28.822  0.00  0.00    +0.203 C 
ATOM      5  O   UNL     1      55.419 159.090  28.837  0.00  0.00    -0.289 OA
ATOM      6  C   UNL     1      53.355 158.491  27.786  0.00  0.00    +0.039 C 
ATOM      7  C   UNL     1      52.293 157.715  27.944  0.00  0.00    +0.015 C 
ENDROOT
BRANCH   1   8
ATOM      8  C   UNL     1      52.165 155.387  28.556  0.00  0.00    +0.014 C 
ATOM      9  C   UNL     1      53.133 154.508  28.970  0.00  0.00    +0.011 C 
ATOM     10  C   UNL     1      53.198 153.190  28.509  0.00  0.00    +0.068 C 
ATOM     11  C   UNL     1      52.253 152.748  27.599  0.00  0.00    +0.068 C 
ATOM     12  C   UNL     1      51.264 153.616  27.165  0.00  0.00    +0.012 C 
ATOM     13  C   UNL     1      51.228 154.912  27.640  0.00  0.00    -0.000 C 
ATOM     14 CL   UNL     1      52.370 151.090  27.045  0.00  0.00    -0.081 Cl
ATOM     15 CL   UNL     1      54.470 152.146  29.095  0.00  0.00    -0.081 Cl
ENDBRANCH   1   8
BRANCH   1  16
ATOM     16  C   UNL     1      50.717 156.985  29.578  0.00  0.00    +0.190 A 
ATOM     17  N   UNL     1      49.687 156.110  29.475  0.00  0.00    -0.110 NA
ATOM     18  N   UNL     1      48.622 156.631  30.047  0.00  0.00    -0.023 NA
ATOM     19  N   UNL     1      48.960 157.806  30.505  0.00  0.00    -0.047 NA
ATOM     20  N   UNL     1      50.228 158.053  30.236  0.00  0.00    -0.240 N 
ATOM     21  H   UNL     1      50.725 158.869  30.473  0.00  0.00    +0.192 HD
ENDBRANCH   1  16
TORSDOF 2
