REMARK  Name = =
REMARK  12 active torsions:
REMARK  status: ('A' for Active; 'I' for Inactive)
REMARK    1  A    between atoms: C_1  and  C_9
REMARK    2  A    between atoms: C_2  and  O_21
REMARK    3  A    between atoms: C_9  and  C_16
REMARK    4  A    between atoms: O_21  and  P_22
REMARK    5  A    between atoms: P_22  and  O_24
REMARK    6  A    between atoms: P_22  and  O_25
REMARK    7  A    between atoms: O_25  and  P_26
REMARK    8  A    between atoms: P_26  and  O_28
REMARK    9  A    between atoms: P_26  and  O_29
REMARK   10  A    between atoms: O_29  and  P_30
REMARK   11  A    between atoms: P_30  and  O_32
REMARK   12  A    between atoms: P_30  and  O_33
REMARK                            x       y       z     vdW  Elec       q    Type
REMARK                         _______ _______ _______ _____ _____    ______ ____
ROOT
ATOM      1  C   UNL     1      51.594 154.264  28.774  0.00  0.00    +0.048 C 
ATOM      2  C   UNL     1      52.179 155.396  28.195  0.00  0.00    +0.159 C 
ATOM      3  C   UNL     1      51.953 156.649  28.742  0.00  0.00    +0.102 C 
ATOM      4  C   UNL     1      51.158 156.823  29.856  0.00  0.00    +0.071 C 
ATOM      5  C   UNL     1      50.583 155.711  30.428  0.00  0.00    +0.012 C 
ATOM      6  C   UNL     1      50.809 154.454  29.880  0.00  0.00    +0.003 C 
ATOM      7 CL   UNL     1      50.903 158.423  30.510  0.00  0.00    -0.081 Cl
ATOM      8 CL   UNL     1      52.672 158.066  28.033  0.00  0.00    -0.078 Cl
ENDROOT
BRANCH   1   9
ATOM      9  C   UNL     1      51.814 152.944  28.221  0.00  0.00    +0.186 C 
ATOM     10  O   UNL     1      51.197 152.820  26.971  0.00  0.00    -0.335 OA
ATOM     11  C   UNL     1      51.673 151.737  26.261  0.00  0.00    +0.212 C 
ATOM     12  C   UNL     1      51.918 150.570  27.148  0.00  0.00    +0.203 C 
ATOM     13  O   UNL     1      52.552 149.555  26.757  0.00  0.00    -0.289 OA
ATOM     14  C   UNL     1      51.397 150.628  28.510  0.00  0.00    +0.039 C 
ATOM     15  C   UNL     1      51.338 151.829  29.065  0.00  0.00    +0.015 C 
BRANCH   9  16
ATOM     16  C   UNL     1      53.269 152.733  27.979  0.00  0.00    +0.190 A 
ATOM     17  N   UNL     1      53.886 152.439  26.825  0.00  0.00    -0.110 NA
ATOM     18  N   UNL     1      55.171 152.348  27.095  0.00  0.00    -0.023 NA
ATOM     19  N   UNL     1      55.423 152.569  28.374  0.00  0.00    -0.047 NA
ATOM     20  N   UNL     1      54.248 152.805  28.914  0.00  0.00    -0.240 N 
ATOM     21  H   UNL     1      54.099 153.006  29.866  0.00  0.00    +0.192 HD
ENDBRANCH   9  16
ENDBRANCH   1   9
BRANCH   2  22
ATOM     22  O   UNL     1      52.952 155.169  27.100  0.00  0.00    -0.402 OA
BRANCH  22  23
ATOM     23  P   UNL     1      52.501 154.916  25.500  0.00  0.00    +0.539 P 
ATOM     24  O   UNL     1      52.583 156.291  24.814  0.00  0.00    -0.215 OA
BRANCH  23  25
ATOM     25  O   UNL     1      50.898 154.416  25.307  0.00  0.00    -0.293 OA
ATOM     26  H   UNL     1      50.313 155.003  25.812  0.00  0.00    +0.223 HD
ENDBRANCH  23  25
BRANCH  23  27
ATOM     27  O   UNL     1      53.588 153.941  24.648  0.00  0.00    -0.176 OA
BRANCH  27  28
ATOM     28  P   UNL     1      54.758 154.966  23.985  0.00  0.00    +0.493 P 
ATOM     29  O   UNL     1      55.110 154.479  22.576  0.00  0.00    -0.226 OA
BRANCH  28  30
ATOM     30  O   UNL     1      56.143 154.843  24.956  0.00  0.00    -0.302 OA
ATOM     31  H   UNL     1      56.440 153.920  24.980  0.00  0.00    +0.222 HD
ENDBRANCH  28  30
BRANCH  28  32
ATOM     32  O   UNL     1      54.208 156.564  23.917  0.00  0.00    -0.186 OA
BRANCH  32  33
ATOM     33  P   UNL     1      55.425 157.605  23.400  0.00  0.00    +0.481 P 
ATOM     34  O   UNL     1      54.863 159.010  23.171  0.00  0.00    -0.227 OA
BRANCH  33  35
ATOM     35  O   UNL     1      56.621 157.750  24.604  0.00  0.00    -0.302 OA
ATOM     36  H   UNL     1      56.213 158.054  25.430  0.00  0.00    +0.222 HD
ENDBRANCH  33  35
BRANCH  33  37
ATOM     37  O   UNL     1      56.155 157.075  21.968  0.00  0.00    -0.302 OA
ATOM     38  H   UNL     1      56.516 156.184  22.100  0.00  0.00    +0.222 HD
ENDBRANCH  33  37
ENDBRANCH  32  33
ENDBRANCH  28  32
ENDBRANCH  27  28
ENDBRANCH  23  27
ENDBRANCH  22  23
ENDBRANCH   2  22
TORSDOF 12
