REMARK  Name = =
REMARK  1 active torsions:
REMARK  status: ('A' for Active; 'I' for Inactive)
REMARK    1  A    between atoms: C_1  and  N_8
REMARK                            x       y       z     vdW  Elec       q    Type
REMARK                         _______ _______ _______ _____ _____    ______ ____
ROOT
ATOM      1  C   UNL     1      -3.233  -4.916  32.153  0.00  0.00    +0.080 C 
ATOM      2  C   UNL     1      -4.578  -4.588  32.805  0.00  0.00    +0.029 C 
ATOM      3  C   UNL     1      -4.834  -3.104  32.704  0.00  0.00    +0.071 C 
ATOM      4  C   UNL     1      -4.474  -2.567  31.369  0.00  0.00    +0.173 C 
ATOM      5  O   UNL     1      -4.613  -1.337  31.156  0.00  0.00    -0.291 OA
ATOM      6  C   UNL     1      -3.971  -3.502  30.362  0.00  0.00    +0.034 C 
ATOM      7  C   UNL     1      -3.380  -4.620  30.718  0.00  0.00    -0.008 C 
ENDROOT
BRANCH   1   8
ATOM      8  N   UNL     1      -2.798  -6.228  32.470  0.00  0.00    -0.270 NA
ATOM      9  C   UNL     1      -3.832  -7.226  32.443  0.00  0.00    +0.072 C 
ATOM     10  C   UNL     1      -3.303  -8.533  33.014  0.00  0.00    +0.017 C 
ATOM     11  C   UNL     1      -2.181  -9.054  32.156  0.00  0.00    +0.003 C 
ATOM     12  C   UNL     1      -1.146  -7.980  32.010  0.00  0.00    +0.017 C 
ATOM     13  C   UNL     1      -1.735  -6.650  31.601  0.00  0.00    +0.072 C 
ENDBRANCH   1   8
TORSDOF 1
