REMARK  Name = =
REMARK  5 active torsions:
REMARK  status: ('A' for Active; 'I' for Inactive)
REMARK    1  A    between atoms: N_1  and  C_7
REMARK    2  A    between atoms: C_4  and  N_14
REMARK    3  A    between atoms: N_14  and  P_15
REMARK    4  A    between atoms: P_15  and  N_17
REMARK    5  A    between atoms: P_15  and  O_18
REMARK                            x       y       z     vdW  Elec       q    Type
REMARK                         _______ _______ _______ _____ _____    ______ ____
ROOT
ATOM      1  N   UNL     1      -4.147  -4.500  32.368  0.00  0.00    -0.270 NA
ATOM      2  C   UNL     1      -5.468  -4.481  31.820  0.00  0.00    +0.074 C 
ATOM      3  C   UNL     1      -6.030  -3.051  31.832  0.00  0.00    +0.034 C 
ATOM      4  C   UNL     1      -5.110  -2.140  31.058  0.00  0.00    +0.065 C 
ATOM      5  C   UNL     1      -3.890  -2.860  30.554  0.00  0.00    +0.034 C 
ATOM      6  C   UNL     1      -3.216  -3.667  31.638  0.00  0.00    +0.074 C 
ENDROOT
BRANCH   1   7
ATOM      7  C   UNL     1      -3.673  -5.853  32.457  0.00  0.00    +0.080 C 
ATOM      8  C   UNL     1      -2.307  -5.925  33.139  0.00  0.00    +0.029 C 
ATOM      9  C   UNL     1      -2.009  -7.408  33.332  0.00  0.00    +0.071 C 
ATOM     10  C   UNL     1      -1.847  -7.995  31.960  0.00  0.00    +0.173 C 
ATOM     11  O   UNL     1      -1.065  -8.944  31.721  0.00  0.00    -0.291 OA
ATOM     12  C   UNL     1      -2.640  -7.421  30.892  0.00  0.00    +0.034 C 
ATOM     13  C   UNL     1      -3.494  -6.430  31.088  0.00  0.00    -0.008 C 
ENDBRANCH   1   7
BRANCH   4  14
ATOM     14  N   UNL     1      -4.789  -0.943  31.772  0.00  0.00    -0.224 NA
ATOM     15  H   UNL     1      -4.093  -0.425  31.236  0.00  0.00    +0.133 HD
BRANCH  14  16
ATOM     16  P   UNL     1      -6.152   0.095  32.045  0.00  0.00    +0.339 P 
ATOM     17  O   UNL     1      -6.380   0.335  33.531  0.00  0.00    -0.255 OA
BRANCH  16  18
ATOM     18  N   UNL     1      -7.639  -0.508  31.383  0.00  0.00    -0.247 NA
ATOM     19  H   UNL     1      -7.834  -1.431  31.770  0.00  0.00    +0.129 HD
ATOM     20  H   UNL     1      -7.557  -0.575  30.369  0.00  0.00    +0.129 HD
ENDBRANCH  16  18
BRANCH  16  21
ATOM     21  O   UNL     1      -5.886   1.640  31.357  0.00  0.00    -0.322 OA
ATOM     22  H   UNL     1      -5.060   2.011  31.705  0.00  0.00    +0.220 HD
ENDBRANCH  16  21
ENDBRANCH  14  16
ENDBRANCH   4  14
TORSDOF 5
