REMARK  Name = =
REMARK  0 active torsions:
REMARK  status: ('A' for Active; 'I' for Inactive)
REMARK                            x       y       z     vdW  Elec       q    Type
REMARK                         _______ _______ _______ _____ _____    ______ ____
ROOT
ATOM      1  C   UNL     1      53.695 155.844  25.116  0.00  0.00    +0.002 C 
ATOM      2  C   UNL     1      53.738 154.463  25.085  0.00  0.00    +0.002 C 
ATOM      3  C   UNL     1      53.253 153.729  26.159  0.00  0.00    +0.019 C 
ATOM      4  C   UNL     1      52.728 154.371  27.260  0.00  0.00    +0.099 C 
ATOM      5  N   UNL     1      52.244 153.717  28.330  0.00  0.00    -0.241 NA
ATOM      6  C   UNL     1      51.727 154.327  29.411  0.00  0.00    +0.119 C 
ATOM      7  C   UNL     1      51.683 155.705  29.446  0.00  0.00    +0.119 C 
ATOM      8  N   UNL     1      52.168 156.400  28.373  0.00  0.00    -0.241 NA
ATOM      9  C   UNL     1      52.677 155.758  27.308  0.00  0.00    +0.099 C 
ATOM     10  C   UNL     1      53.159 156.483  26.241  0.00  0.00    +0.021 C 
ATOM     11  C   UNL     1      53.303 152.353  26.114  0.00  0.00    +0.002 C 
ATOM     12  C   UNL     1      53.828 151.681  25.015  0.00  0.00    +0.000 C 
ATOM     13  C   UNL     1      54.304 152.399  23.959  0.00  0.00    +0.000 C 
ATOM     14  C   UNL     1      54.256 153.782  24.002  0.00  0.00    +0.000 C 
ENDROOT
TORSDOF 0
