REMARK  Name = =
REMARK  0 active torsions:
REMARK  status: ('A' for Active; 'I' for Inactive)
REMARK                            x       y       z     vdW  Elec       q    Type
REMARK                         _______ _______ _______ _____ _____    ______ ____
ROOT
ATOM      1  N   UNL     1      52.421 155.423  26.234  0.00  0.00    -0.290 NA
ATOM      2  C   UNL     1      53.579 155.423  25.327  0.00  0.00    +0.096 C 
ATOM      3  C   UNL     1      53.731 153.953  25.036  0.00  0.00    -0.009 C 
ATOM      4  C   UNL     1      53.243 153.300  26.150  0.00  0.00    -0.009 C 
ATOM      5  C   UNL     1      53.259 151.911  26.159  0.00  0.00    -0.003 C 
ATOM      6  C   UNL     1      53.747 151.204  25.086  0.00  0.00    -0.000 C 
ATOM      7  C   UNL     1      54.240 151.845  23.960  0.00  0.00    -0.000 C 
ATOM      8  C   UNL     1      54.213 153.226  23.975  0.00  0.00    -0.003 C 
ATOM      9  C   UNL     1      52.797 154.317  27.119  0.00  0.00    +0.096 C 
ATOM     10  H   UNL     1      52.337 156.304  26.742  0.00  0.00    +0.124 HD
ENDROOT
TORSDOF 0
