REMARK  Name = =
REMARK  0 active torsions:
REMARK  status: ('A' for Active; 'I' for Inactive)
REMARK                            x       y       z     vdW  Elec       q    Type
REMARK                         _______ _______ _______ _____ _____    ______ ____
ROOT
ATOM      1  N   UNL     1      51.666 158.745  29.542  0.00  0.00    -0.266 NA
ATOM      2  C   UNL     1      52.086 160.085  29.909  0.00  0.00    +0.077 C 
ATOM      3  C   UNL     1      50.963 161.046  29.981  0.00  0.00    +0.043 C 
ATOM      4  C   UNL     1      49.737 160.398  30.496  0.00  0.00    -0.023 C 
ATOM      5  C   UNL     1      49.672 159.059  30.757  0.00  0.00    -0.011 C 
ATOM      6  C   UNL     1      48.467 158.519  31.245  0.00  0.00    -0.003 C 
ATOM      7  C   UNL     1      47.377 159.329  31.454  0.00  0.00    -0.000 C 
ATOM      8  C   UNL     1      47.447 160.678  31.189  0.00  0.00    -0.000 C 
ATOM      9  C   UNL     1      48.610 161.226  30.714  0.00  0.00    -0.004 C 
ATOM     10  C   UNL     1      50.831 158.156  30.545  0.00  0.00    +0.084 C 
ATOM     11  C   UNL     1      50.318 156.826  30.074  0.00  0.00    +0.047 C 
ATOM     12  C   UNL     1      51.142 156.214  29.020  0.00  0.00    -0.023 C 
ATOM     13  C   UNL     1      52.352 156.705  28.588  0.00  0.00    -0.010 C 
ATOM     14  C   UNL     1      53.072 156.077  27.592  0.00  0.00    -0.003 C 
ATOM     15  C   UNL     1      52.590 154.928  26.997  0.00  0.00    -0.000 C 
ATOM     16  C   UNL     1      51.377 154.424  27.420  0.00  0.00    -0.000 C 
ATOM     17  C   UNL     1      50.675 155.068  28.416  0.00  0.00    -0.004 C 
ATOM     18  C   UNL     1      52.844 157.948  29.253  0.00  0.00    +0.099 C 
ENDROOT
TORSDOF 0
