REMARK  Name = =
REMARK  0 active torsions:
REMARK  status: ('A' for Active; 'I' for Inactive)
REMARK                            x       y       z     vdW  Elec       q    Type
REMARK                         _______ _______ _______ _____ _____    ______ ____
ROOT
ATOM      1  N   UNL     1      52.012 159.628  30.378  0.00  0.00    -0.250 NA
ATOM      2  C   UNL     1      53.145 160.584  30.329  0.00  0.00    +0.075 C 
ATOM      3  C   UNL     1      52.221 161.796  30.291  0.00  0.00    +0.021 C 
ATOM      4  C   UNL     1      50.956 161.045  30.753  0.00  0.00    +0.045 C 
ATOM      5  C   UNL     1      50.032 160.063  30.992  0.00  0.00    +0.044 C 
ATOM      6  C   UNL     1      50.509 160.658  32.040  0.00  0.00    +0.029 C 
ATOM      7  C   UNL     1      50.975 160.576  30.631  0.00  0.00    +0.141 C 
ATOM      8  O   UNL     1      49.946 160.702  29.585  0.00  0.00    -0.345 OA
ATOM      9  C   UNL     1      48.855 161.440  29.972  0.00  0.00    +0.144 C 
ATOM     10  C   UNL     1      47.650 160.857  30.602  0.00  0.00    +0.032 C 
ATOM     11  C   UNL     1      47.732 159.564  31.345  0.00  0.00    +0.007 C 
ATOM     12  C   UNL     1      49.988 160.654  33.241  0.00  0.00    -0.031 C 
ATOM     13  C   UNL     1      48.668 160.129  33.705  0.00  0.00    -0.031 C 
ATOM     14  C   UNL     1      47.711 159.709  32.853  0.00  0.00    +0.026 C 
ATOM     15  C   UNL     1      49.119 159.115  30.825  0.00  0.00    +0.009 C 
ATOM     16  C   UNL     1      49.066 158.055  29.932  0.00  0.00    +0.026 C 
ATOM     17  C   UNL     1      50.224 157.169  29.731  0.00  0.00    -0.025 C 
ATOM     18  C   UNL     1      51.478 157.592  29.366  0.00  0.00    -0.010 C 
ATOM     19  C   UNL     1      52.490 156.677  29.196  0.00  0.00    -0.003 C 
ATOM     20  C   UNL     1      52.263 155.307  29.389  0.00  0.00    -0.000 C 
ATOM     21  C   UNL     1      51.007 154.880  29.755  0.00  0.00    -0.000 C 
ATOM     22  C   UNL     1      50.005 155.821  29.921  0.00  0.00    -0.005 C 
ATOM     23  C   UNL     1      51.791 159.032  29.153  0.00  0.00    +0.100 C 
ENDROOT
TORSDOF 0
