REMARK  Name = =
REMARK  1 active torsions:
REMARK  status: ('A' for Active; 'I' for Inactive)
REMARK    1  A    between atoms: C_1  and  N_15
REMARK                            x       y       z     vdW  Elec       q    Type
REMARK                         _______ _______ _______ _____ _____    ______ ____
ROOT
ATOM      1  C   UNL     1      53.465 155.125  25.818  0.00  0.00    +0.049 C 
ATOM      2  C   UNL     1      53.323 153.753  25.789  0.00  0.00    +0.015 C 
ATOM      3  C   UNL     1      52.703 153.107  26.870  0.00  0.00    +0.020 C 
ATOM      4  C   UNL     1      52.232 153.810  27.954  0.00  0.00    +0.099 C 
ATOM      5  N   UNL     1      51.631 153.238  29.013  0.00  0.00    -0.241 NA
ATOM      6  C   UNL     1      51.171 153.920  30.070  0.00  0.00    +0.119 C 
ATOM      7  C   UNL     1      51.307 155.284  30.104  0.00  0.00    +0.119 C 
ATOM      8  N   UNL     1      51.907 155.879  29.054  0.00  0.00    -0.241 NA
ATOM      9  C   UNL     1      52.367 155.192  27.993  0.00  0.00    +0.100 C 
ATOM     10  C   UNL     1      52.972 155.825  26.944  0.00  0.00    +0.035 C 
ATOM     11  C   UNL     1      52.539 151.746  26.859  0.00  0.00    +0.002 C 
ATOM     12  C   UNL     1      52.972 150.978  25.797  0.00  0.00    +0.000 C 
ATOM     13  C   UNL     1      53.570 151.641  24.762  0.00  0.00    +0.000 C 
ATOM     14  C   UNL     1      53.762 153.004  24.718  0.00  0.00    +0.001 C 
ENDROOT
BRANCH   1  15
ATOM     15  N   UNL     1      54.123 155.858  24.808  0.00  0.00    -0.307 N 
ATOM     16  C   UNL     1      53.542 157.035  24.145  0.00  0.00    +0.091 C 
ATOM     17  C   UNL     1      54.679 157.803  23.535  0.00  0.00    +0.023 C 
ATOM     18  C   UNL     1      55.872 157.212  24.290  0.00  0.00    +0.023 C 
ATOM     19  C   UNL     1      55.428 155.727  24.246  0.00  0.00    +0.091 C 
ENDBRANCH   1  15
TORSDOF 1
