REMARK  Name = =
REMARK  0 active torsions:
REMARK  status: ('A' for Active; 'I' for Inactive)
REMARK                            x       y       z     vdW  Elec       q    Type
REMARK                         _______ _______ _______ _____ _____    ______ ____
ROOT
ATOM      1  N   UNL     1      52.405 157.013  28.448  0.00  0.00    -0.207 N 
ATOM      2  N   UNL     1      52.137 155.936  27.695  0.00  0.00    -0.115 NA
ATOM      3  C   UNL     1      53.180 155.678  26.888  0.00  0.00    +0.313 A 
ATOM      4  O   UNL     1      54.068 156.580  27.142  0.00  0.00    -0.375 OA
ATOM      5  C   UNL     1      53.632 157.408  28.083  0.00  0.00    +0.437 A 
ATOM      6  O   UNL     1      54.254 158.403  28.567  0.00  0.00    -0.221 OA
ATOM      7  N   UNL     1      53.231 154.601  25.955  0.00  0.00    -0.254 N 
ATOM      8  C   UNL     1      52.204 153.608  25.703  0.00  0.00    +0.122 C 
ATOM      9  C   UNL     1      53.036 152.361  25.568  0.00  0.00    -0.005 C 
ATOM     10  C   UNL     1      54.295 152.752  25.178  0.00  0.00    -0.005 C 
ATOM     11  C   UNL     1      55.254 151.783  24.983  0.00  0.00    -0.003 C 
ATOM     12  C   UNL     1      55.017 150.434  25.161  0.00  0.00    -0.000 C 
ATOM     13  C   UNL     1      53.741 150.083  25.554  0.00  0.00    -0.000 C 
ATOM     14  C   UNL     1      52.765 151.027  25.754  0.00  0.00    -0.003 C 
ATOM     15  C   UNL     1      54.309 154.252  25.052  0.00  0.00    +0.122 C 
ATOM     16  H   UNL     1      51.823 157.426  29.126  0.00  0.00    +0.195 HD
ENDROOT
TORSDOF 0
