REMARK  Name = =
REMARK  2 active torsions:
REMARK  status: ('A' for Active; 'I' for Inactive)
REMARK    1  A    between atoms: C_1  and  N_26
REMARK    2  A    between atoms: C_12  and  C_15
REMARK                            x       y       z     vdW  Elec       q    Type
REMARK                         _______ _______ _______ _____ _____    ______ ____
ROOT
ATOM      1  C   UNL     1      53.463 155.566  26.046  0.00  0.00    +0.049 C 
ATOM      2  C   UNL     1      53.192 154.204  26.161  0.00  0.00    +0.015 C 
ATOM      3  C   UNL     1      52.345 153.792  27.191  0.00  0.00    +0.020 C 
ATOM      4  C   UNL     1      51.795 154.699  28.067  0.00  0.00    +0.099 C 
ATOM      5  N   UNL     1      50.982 154.303  29.057  0.00  0.00    -0.241 NA
ATOM      6  C   UNL     1      50.430 155.163  29.926  0.00  0.00    +0.119 C 
ATOM      7  C   UNL     1      50.707 156.505  29.803  0.00  0.00    +0.119 C 
ATOM      8  N   UNL     1      51.515 156.940  28.828  0.00  0.00    -0.241 NA
ATOM      9  C   UNL     1      52.066 156.039  27.952  0.00  0.00    +0.100 C 
ATOM     10  C   UNL     1      52.891 156.451  26.948  0.00  0.00    +0.035 C 
ATOM     11  C   UNL     1      52.084 152.432  27.303  0.00  0.00    -0.002 C 
ATOM     12  C   UNL     1      52.622 151.493  26.450  0.00  0.00    -0.015 C 
ATOM     13  C   UNL     1      53.461 151.903  25.430  0.00  0.00    -0.004 C 
ATOM     14  C   UNL     1      53.723 153.251  25.315  0.00  0.00    +0.001 C 
ENDROOT
BRANCH  12  15
ATOM     15  C   UNL     1      52.295 150.056  26.635  0.00  0.00    +0.084 C 
ATOM     16  C   UNL     1      50.846 149.800  26.912  0.00  0.00    +0.017 C 
ATOM     17  C   UNL     1      50.072 149.200  25.792  0.00  0.00    +0.027 C 
ATOM     18  C   UNL     1      50.743 148.077  25.098  0.00  0.00    -0.019 C 
ATOM     19  C   UNL     1      52.105 148.151  24.923  0.00  0.00    +0.031 C 
ATOM     20  C   UNL     1      52.812 147.138  24.275  0.00  0.00    +0.003 C 
ATOM     21  C   UNL     1      52.162 146.024  23.787  0.00  0.00    +0.000 C 
ATOM     22  C   UNL     1      50.799 145.962  23.969  0.00  0.00    -0.000 C 
ATOM     23  C   UNL     1      50.085 146.969  24.615  0.00  0.00    -0.004 C 
ATOM     24  C   UNL     1      52.791 149.327  25.443  0.00  0.00    +0.176 C 
ATOM     25  O   UNL     1      53.836 149.728  24.852  0.00  0.00    -0.291 OA
ENDBRANCH  12  15
BRANCH   1  26
ATOM     26  N   UNL     1      54.294 156.036  25.000  0.00  0.00    -0.307 N 
ATOM     27  C   UNL     1      53.987 156.284  23.615  0.00  0.00    +0.091 C 
ATOM     28  C   UNL     1      54.865 157.486  23.226  0.00  0.00    +0.023 C 
ATOM     29  C   UNL     1      55.613 157.801  24.500  0.00  0.00    +0.023 C 
ATOM     30  C   UNL     1      55.693 156.398  25.122  0.00  0.00    +0.091 C 
ENDBRANCH   1  26
TORSDOF 2
