REMARK  Name = =
REMARK  1 active torsions:
REMARK  status: ('A' for Active; 'I' for Inactive)
REMARK    1  A    between atoms: N_1  and  C_16
REMARK                            x       y       z     vdW  Elec       q    Type
REMARK                         _______ _______ _______ _____ _____    ______ ____
ROOT
ATOM      1  N   UNL     1      51.880 158.017  28.762  0.00  0.00    -0.184 N 
ATOM      2  N   UNL     1      51.595 157.238  27.735  0.00  0.00    -0.112 NA
ATOM      3  C   UNL     1      52.441 156.196  27.673  0.00  0.00    +0.313 A 
ATOM      4  O   UNL     1      53.256 156.357  28.691  0.00  0.00    -0.375 OA
ATOM      5  C   UNL     1      52.940 157.441  29.358  0.00  0.00    +0.440 A 
ATOM      6  O   UNL     1      53.567 157.817  30.378  0.00  0.00    -0.221 OA
ATOM      7  N   UNL     1      52.414 155.166  26.690  0.00  0.00    -0.254 N 
ATOM      8  C   UNL     1      51.729 153.895  26.887  0.00  0.00    +0.122 C 
ATOM      9  C   UNL     1      52.597 152.956  26.112  0.00  0.00    -0.005 C 
ATOM     10  C   UNL     1      53.346 153.685  25.212  0.00  0.00    -0.005 C 
ATOM     11  C   UNL     1      54.214 152.985  24.399  0.00  0.00    -0.003 C 
ATOM     12  C   UNL     1      54.364 151.619  24.447  0.00  0.00    -0.000 C 
ATOM     13  C   UNL     1      53.593 150.904  25.370  0.00  0.00    -0.000 C 
ATOM     14  C   UNL     1      52.727 151.577  26.183  0.00  0.00    -0.003 C 
ATOM     15  C   UNL     1      52.988 155.114  25.378  0.00  0.00    +0.122 C 
ENDROOT
BRANCH   1  16
ATOM     16  C   UNL     1      51.190 159.190  29.110  0.00  0.00    +0.111 C 
ATOM     17  C   UNL     1      51.501 159.819  30.430  0.00  0.00    +0.025 C 
ATOM     18  C   UNL     1      50.227 160.580  30.837  0.00  0.00    +0.002 C 
ATOM     19  C   UNL     1      49.374 160.487  29.552  0.00  0.00    +0.002 C 
ATOM     20  C   UNL     1      49.674 158.994  29.276  0.00  0.00    +0.023 C 
ATOM     21  C   UNL     1      49.389 158.399  30.646  0.00  0.00    +0.002 C 
ATOM     22  C   UNL     1      49.419 159.548  31.643  0.00  0.00    +0.000 C 
ENDBRANCH   1  16
TORSDOF 1
