REMARK  Name = =
REMARK  2 active torsions:
REMARK  status: ('A' for Active; 'I' for Inactive)
REMARK    1  A    between atoms: N_1  and  C_26
REMARK    2  A    between atoms: C_11  and  N_16
REMARK                            x       y       z     vdW  Elec       q    Type
REMARK                         _______ _______ _______ _____ _____    ______ ____
ROOT
ATOM      1  N   UNL     1      52.981 155.417  26.219  0.00  0.00    -0.184 N 
ATOM      2  N   UNL     1      53.526 156.393  26.911  0.00  0.00    -0.112 NA
ATOM      3  C   UNL     1      52.690 156.792  27.891  0.00  0.00    +0.313 A 
ATOM      4  O   UNL     1      51.628 156.019  27.760  0.00  0.00    -0.375 OA
ATOM      5  C   UNL     1      51.782 155.183  26.756  0.00  0.00    +0.440 A 
ATOM      6  O   UNL     1      50.902 154.342  26.430  0.00  0.00    -0.221 OA
ATOM      7  N   UNL     1      52.871 157.811  28.868  0.00  0.00    -0.254 N 
ATOM      8  C   UNL     1      54.093 158.616  28.932  0.00  0.00    +0.122 C 
ATOM      9  C   UNL     1      53.671 159.805  29.714  0.00  0.00    -0.003 C 
ATOM     10  C   UNL     1      52.433 159.570  30.278  0.00  0.00    +0.009 C 
ATOM     11  C   UNL     1      51.859 160.559  31.050  0.00  0.00    +0.056 C 
ATOM     12  C   UNL     1      52.526 161.771  31.252  0.00  0.00    +0.015 C 
ATOM     13  C   UNL     1      53.763 162.018  30.696  0.00  0.00    +0.001 C 
ATOM     14  C   UNL     1      54.316 161.010  29.925  0.00  0.00    -0.003 C 
ATOM     15  C   UNL     1      51.963 158.214  29.901  0.00  0.00    +0.123 C 
ENDROOT
BRANCH  11  16
ATOM     16  N   UNL     1      50.579 160.403  31.673  0.00  0.00    -0.233 N 
ATOM     17  C   UNL     1      49.436 160.004  31.067  0.00  0.00    +0.163 C 
ATOM     18  N   UNL     1      49.121 159.650  29.802  0.00  0.00    -0.207 NA
ATOM     19  C   UNL     1      47.873 159.283  29.445  0.00  0.00    +0.201 C 
ATOM     20  N   UNL     1      46.888 159.264  30.380  0.00  0.00    -0.208 NA
ATOM     21  C   UNL     1      47.117 159.603  31.659  0.00  0.00    +0.148 C 
ATOM     22  C   UNL     1      48.402 159.975  32.001  0.00  0.00    +0.146 C 
ATOM     23  N   UNL     1      48.948 160.361  33.169  0.00  0.00    -0.221 NA
ATOM     24  C   UNL     1      50.263 160.616  32.953  0.00  0.00    +0.173 C 
ATOM     25  N   UNL     1      46.049 159.566  32.598  0.00  0.00    -0.341 N 
ATOM     26  H   UNL     1      45.148 159.294  32.308  0.00  0.00    +0.144 HD
ATOM     27  H   UNL     1      46.211 159.812  33.537  0.00  0.00    +0.144 HD
ENDBRANCH  11  16
BRANCH   1  28
ATOM     28  C   UNL     1      53.577 154.758  25.116  0.00  0.00    +0.111 C 
ATOM     29  C   UNL     1      55.070 154.779  25.101  0.00  0.00    +0.025 C 
ATOM     30  C   UNL     1      55.542 153.369  24.781  0.00  0.00    +0.002 C 
ATOM     31  C   UNL     1      54.301 152.832  24.044  0.00  0.00    +0.002 C 
ATOM     32  C   UNL     1      53.261 153.255  25.094  0.00  0.00    +0.023 C 
ATOM     33  C   UNL     1      53.885 152.667  26.350  0.00  0.00    +0.002 C 
ATOM     34  C   UNL     1      55.370 152.589  26.095  0.00  0.00    +0.000 C 
ENDBRANCH   1  28
TORSDOF 2
