REMARK  Name = =
REMARK  4 active torsions:
REMARK  status: ('A' for Active; 'I' for Inactive)
REMARK    1  A    between atoms: C_1  and  N_26
REMARK    2  A    between atoms: C_6  and  N_31
REMARK    3  A    between atoms: C_12  and  C_15
REMARK    4  A    between atoms: N_31  and  O_32
REMARK                            x       y       z     vdW  Elec       q    Type
REMARK                         _______ _______ _______ _____ _____    ______ ____
ROOT
ATOM      1  C   UNL     1      53.616 156.159  25.629  0.00  0.00    +0.049 C 
ATOM      2  C   UNL     1      53.526 154.777  25.617  0.00  0.00    +0.015 C 
ATOM      3  C   UNL     1      52.985 154.118  26.702  0.00  0.00    +0.020 C 
ATOM      4  C   UNL     1      52.530 154.801  27.803  0.00  0.00    +0.101 C 
ATOM      5  N   UNL     1      52.009 154.117  28.843  0.00  0.00    -0.224 NA
ATOM      6  C   UNL     1      51.559 154.745  29.925  0.00  0.00    +0.179 C 
ATOM      7  C   UNL     1      51.633 156.109  29.967  0.00  0.00    +0.137 C 
ATOM      8  N   UNL     1      52.150 156.806  28.939  0.00  0.00    -0.239 NA
ATOM      9  C   UNL     1      52.611 156.176  27.834  0.00  0.00    +0.100 C 
ATOM     10  C   UNL     1      53.143 156.829  26.766  0.00  0.00    +0.035 C 
ATOM     11  C   UNL     1      52.894 152.735  26.689  0.00  0.00    -0.002 C 
ATOM     12  C   UNL     1      53.327 151.983  25.620  0.00  0.00    -0.015 C 
ATOM     13  C   UNL     1      53.862 152.656  24.547  0.00  0.00    -0.004 C 
ATOM     14  C   UNL     1      53.971 154.042  24.525  0.00  0.00    +0.001 C 
ENDROOT
BRANCH  12  15
ATOM     15  C   UNL     1      53.194 150.529  25.689  0.00  0.00    +0.084 C 
ATOM     16  C   UNL     1      53.960 149.863  24.537  0.00  0.00    +0.017 C 
ATOM     17  C   UNL     1      54.079 148.389  24.890  0.00  0.00    +0.027 C 
ATOM     18  C   UNL     1      52.712 147.813  25.087  0.00  0.00    -0.019 C 
ATOM     19  C   UNL     1      51.631 148.602  25.419  0.00  0.00    +0.031 C 
ATOM     20  C   UNL     1      50.405 147.995  25.584  0.00  0.00    +0.003 C 
ATOM     21  C   UNL     1      50.242 146.637  25.426  0.00  0.00    +0.000 C 
ATOM     22  C   UNL     1      51.328 145.858  25.095  0.00  0.00    -0.000 C 
ATOM     23  C   UNL     1      52.560 146.449  24.926  0.00  0.00    -0.004 C 
ATOM     24  C   UNL     1      51.811 150.044  25.585  0.00  0.00    +0.176 C 
ATOM     25  O   UNL     1      50.775 150.751  25.624  0.00  0.00    -0.291 OA
ENDBRANCH  12  15
BRANCH   1  26
ATOM     26  N   UNL     1      54.160 156.895  24.563  0.00  0.00    -0.307 N 
ATOM     27  C   UNL     1      55.509 156.832  24.064  0.00  0.00    +0.091 C 
ATOM     28  C   UNL     1      55.879 158.320  23.968  0.00  0.00    +0.023 C 
ATOM     29  C   UNL     1      54.557 158.953  23.551  0.00  0.00    +0.023 C 
ATOM     30  C   UNL     1      53.495 157.880  23.744  0.00  0.00    +0.091 C 
ENDBRANCH   1  26
BRANCH   6  31
ATOM     31  N   UNL     1      51.019 153.980  30.994  0.00  0.00    -0.249 N 
ATOM     32  H   UNL     1      50.959 152.999  30.931  0.00  0.00    +0.196 HD
BRANCH  31  33
ATOM     33  O   UNL     1      50.590 154.628  32.099  0.00  0.00    -0.288 OA
ATOM     34  H   UNL     1      50.725 155.582  31.987  0.00  0.00    +0.244 HD
ENDBRANCH  31  33
ENDBRANCH   6  31
TORSDOF 4
