REMARK  Name = =
REMARK  7 active torsions:
REMARK  status: ('A' for Active; 'I' for Inactive)
REMARK    1  A    between atoms: N_1  and  C_26
REMARK    2  A    between atoms: C_11  and  N_16
REMARK    3  A    between atoms: C_21  and  N_25
REMARK    4  A    between atoms: C_26  and  O_33
REMARK    5  A    between atoms: O_33  and  C_34
REMARK    6  A    between atoms: C_35  and  O_41
REMARK    7  A    between atoms: C_38  and  O_40
REMARK                            x       y       z     vdW  Elec       q    Type
REMARK                         _______ _______ _______ _____ _____    ______ ____
ROOT
ATOM      1  N   UNL     1      61.840 167.260  40.696  0.00  0.00    -0.150 N 
ATOM      2  N   UNL     1      62.022 165.947  40.806  0.00  0.00    -0.109 NA
ATOM      3  C   UNL     1      61.544 165.309  39.739  0.00  0.00    +0.313 A 
ATOM      4  O   UNL     1      61.057 166.234  38.950  0.00  0.00    -0.375 OA
ATOM      5  C   UNL     1      61.227 167.427  39.517  0.00  0.00    +0.443 A 
ATOM      6  O   UNL     1      60.891 168.549  39.066  0.00  0.00    -0.221 OA
ATOM      7  N   UNL     1      61.583 163.901  39.544  0.00  0.00    -0.254 N 
ATOM      8  C   UNL     1      62.130 162.907  40.438  0.00  0.00    +0.122 C 
ATOM      9  C   UNL     1      61.207 161.766  40.274  0.00  0.00    -0.003 C 
ATOM     10  C   UNL     1      60.586 161.900  39.055  0.00  0.00    +0.009 C 
ATOM     11  C   UNL     1      59.652 160.997  38.566  0.00  0.00    +0.056 C 
ATOM     12  C   UNL     1      59.341 159.904  39.372  0.00  0.00    +0.015 C 
ATOM     13  C   UNL     1      59.945 159.739  40.602  0.00  0.00    +0.001 C 
ATOM     14  C   UNL     1      60.867 160.664  41.042  0.00  0.00    -0.003 C 
ATOM     15  C   UNL     1      61.073 163.137  38.391  0.00  0.00    +0.123 C 
ENDROOT
BRANCH  11  16
ATOM     16  N   UNL     1      59.041 161.187  37.296  0.00  0.00    -0.233 N 
ATOM     17  C   UNL     1      59.066 162.349  36.602  0.00  0.00    +0.163 C 
ATOM     18  N   UNL     1      59.589 163.574  36.805  0.00  0.00    -0.207 NA
ATOM     19  C   UNL     1      59.465 164.586  35.926  0.00  0.00    +0.201 C 
ATOM     20  N   UNL     1      58.782 164.385  34.770  0.00  0.00    -0.208 NA
ATOM     21  C   UNL     1      58.225 163.195  34.481  0.00  0.00    +0.148 C 
ATOM     22  C   UNL     1      58.372 162.184  35.403  0.00  0.00    +0.146 C 
ATOM     23  N   UNL     1      57.945 160.927  35.400  0.00  0.00    -0.221 NA
ATOM     24  C   UNL     1      58.344 160.329  36.533  0.00  0.00    +0.173 C 
BRANCH  21  25
ATOM     25  N   UNL     1      57.529 163.070  33.252  0.00  0.00    -0.341 N 
ATOM     26  H   UNL     1      57.466 163.840  32.642  0.00  0.00    +0.144 HD
ATOM     27  H   UNL     1      57.109 162.213  33.009  0.00  0.00    +0.144 HD
ENDBRANCH  21  25
ENDBRANCH  11  16
BRANCH   1  28
ATOM     28  C   UNL     1      62.237 168.290  41.677  0.00  0.00    +0.225 C 
ATOM     29  C   UNL     1      61.320 168.132  42.854  0.00  0.00    +0.065 C 
ATOM     30  C   UNL     1      60.056 168.938  42.536  0.00  0.00    +0.006 C 
ATOM     31  C   UNL     1      60.240 169.178  41.025  0.00  0.00    +0.006 C 
ATOM     32  C   UNL     1      61.726 169.607  41.108  0.00  0.00    +0.059 C 
ATOM     33  C   UNL     1      61.594 170.691  42.139  0.00  0.00    +0.006 C 
ATOM     34  C   UNL     1      60.384 170.365  43.004  0.00  0.00    +0.000 C 
BRANCH  28  35
ATOM     35  O   UNL     1      63.569 168.170  41.873  0.00  0.00    -0.459 OA
BRANCH  35  36
ATOM     36  C   UNL     1      64.585 167.703  41.065  0.00  0.00    +0.177 C 
ATOM     37  C   UNL     1      65.153 166.471  41.222  0.00  0.00    +0.168 C 
ATOM     38  C   UNL     1      66.154 166.057  40.395  0.00  0.00    +0.043 C 
ATOM     39  C   UNL     1      66.650 166.846  39.362  0.00  0.00    +0.040 C 
ATOM     40  C   UNL     1      66.056 168.083  39.231  0.00  0.00    +0.137 C 
ATOM     41  C   UNL     1      65.044 168.525  40.052  0.00  0.00    +0.077 C 
BRANCH  40  42
ATOM     42  O   UNL     1      66.529 168.904  38.202  0.00  0.00    -0.505 OA
ATOM     43  H   UNL     1      67.218 168.604  37.642  0.00  0.00    +0.292 HD
ENDBRANCH  40  42
BRANCH  37  44
ATOM     44  O   UNL     1      64.708 165.639  42.226  0.00  0.00    -0.503 OA
ATOM     45  H   UNL     1      64.020 165.920  42.797  0.00  0.00    +0.292 HD
ENDBRANCH  37  44
ENDBRANCH  35  36
ENDBRANCH  28  35
ENDBRANCH   1  28
TORSDOF 7
