MODEL 1
REMARK VINA RESULT:   -11.033      0.000      0.000
REMARK INTER + INTRA:          -9.731
REMARK INTER:                 -13.290
REMARK INTRA:                   3.559
REMARK UNBOUND:                 3.559
REMARK  Name = =
REMARK  7 active torsions:
REMARK  status: ('A' for Active; 'I' for Inactive)
REMARK    1  A    between atoms: S_1  and  C_2
REMARK    2  A    between atoms: S_1  and  N_16
REMARK    3  A    between atoms: S_1  and  C_29
REMARK    4  A    between atoms: S_1  and  S_34
REMARK    5  A    between atoms: S_1  and  S_38
REMARK    6  A    between atoms: C_20  and  C_22
REMARK    7  A    between atoms: S_34  and  O_37
REMARK                            x       y       z     vdW  Elec       q    Type
REMARK                         _______ _______ _______ _____ _____    ______ ____
ROOT
ATOM      1  S   UNL     1       1.117  -4.852  28.870  0.00  0.00    -0.039 S 
ATOM      2  H   UNL     1       1.769  -3.816  29.462  0.00  0.00    +0.121 HD
ENDROOT
BRANCH   1   3
ATOM      3  C   UNL     1       0.520  -6.457  28.238  0.00  0.00    +0.034 C 
ATOM      4  C   UNL     1      -0.696  -7.024  28.211  0.00  0.00    +0.007 C 
ATOM      5  C   UNL     1      -1.030  -8.323  27.895  0.00  0.00    +0.001 C 
ATOM      6  C   UNL     1      -0.024  -9.141  27.568  0.00  0.00    +0.000 C 
ATOM      7  C   UNL     1       1.253  -8.778  27.533  0.00  0.00    +0.000 C 
ATOM      8  C   UNL     1       1.498  -7.463  27.865  0.00  0.00    +0.006 C 
ATOM      9  C   UNL     1       2.843  -7.076  27.856  0.00  0.00    +0.000 C 
ATOM     10  C   UNL     1       3.882  -7.912  27.543  0.00  0.00    +0.000 C 
ATOM     11  C   UNL     1       3.614  -9.207  27.214  0.00  0.00    +0.000 C 
ATOM     12  C   UNL     1       2.284  -9.628  27.215  0.00  0.00    +0.000 C 
ATOM     13  C   UNL     1       2.052 -10.945  26.875  0.00  0.00    +0.000 C 
ATOM     14  C   UNL     1       3.097 -11.783  26.556  0.00  0.00    +0.000 C 
ATOM     15  C   UNL     1       4.413 -11.371  26.555  0.00  0.00    +0.000 C 
ATOM     16  C   UNL     1       4.640 -10.058  26.895  0.00  0.00    +0.000 C 
ENDBRANCH   1   3
BRANCH   1  17
ATOM     17  N   UNL     1      -0.192  -4.006  29.610  0.00  0.00    -0.227 NA
ATOM     18  C   UNL     1      -0.879  -2.944  28.972  0.00  0.00    +0.100 C 
ATOM     19  C   UNL     1      -2.110  -3.254  28.193  0.00  0.00    +0.087 C 
ATOM     20  N   UNL     1      -3.116  -3.786  29.105  0.00  0.00    -0.296 NA
ATOM     21  C   UNL     1      -2.528  -4.965  29.717  0.00  0.00    +0.072 C 
ATOM     22  C   UNL     1      -1.236  -4.672  30.332  0.00  0.00    +0.099 C 
ATOM     23  H   UNL     1      -3.961  -4.039  28.592  0.00  0.00    +0.123 HD
BRANCH  21  24
ATOM     24  C   UNL     1      -3.493  -5.423  30.793  0.00  0.00    +0.032 C 
ATOM     25  C   UNL     1      -3.619  -4.511  31.959  0.00  0.00    +0.070 C 
ATOM     26  N   UNL     1      -4.637  -5.125  32.836  0.00  0.00    -0.297 NA
ATOM     27  C   UNL     1      -3.965  -5.977  33.808  0.00  0.00    +0.069 C 
ATOM     28  C   UNL     1      -4.245  -7.419  33.383  0.00  0.00    +0.017 C 
ATOM     29  C   UNL     1      -4.358  -7.433  31.873  0.00  0.00    +0.002 C 
ATOM     30  C   UNL     1      -3.126  -6.834  31.225  0.00  0.00    +0.003 C 
ATOM     31  H   UNL     1      -5.280  -5.685  32.276  0.00  0.00    +0.123 HD
ENDBRANCH  21  24
ENDBRANCH   1  17
BRANCH   1  32
ATOM     32  C   UNL     1       1.900  -5.547  30.639  0.00  0.00    +0.219 C 
ATOM     33  N   UNL     1       2.485  -4.790  31.433  0.00  0.00    -0.211 NA
ATOM     34  C   UNL     1       2.668  -5.529  32.581  0.00  0.00    +0.304 C 
ATOM     35  O   UNL     1       2.169  -6.678  32.357  0.00  0.00    -0.207 OA
ATOM     36  N   UNL     1       1.699  -6.630  31.108  0.00  0.00    -0.103 NA
ENDBRANCH   1  32
BRANCH   1  37
ATOM     37  S   UNL     1       2.278  -3.410  28.500  0.00  0.00    +0.026 S 
ATOM     38  O   UNL     1       2.839  -3.446  27.006  0.00  0.00    -0.062 OA
ATOM     39  O   UNL     1       3.663  -3.887  28.807  0.00  0.00    -0.062 OA
BRANCH  37  40
ATOM     40  O   UNL     1       2.318  -2.018  28.909  0.00  0.00    -0.263 OA
ATOM     41  H   UNL     1       2.291  -1.965  29.877  0.00  0.00    +0.243 HD
ENDBRANCH  37  40
ENDBRANCH   1  37
BRANCH   1  42
ATOM     42  S   UNL     1       1.229  -4.797  26.548  0.00  0.00    -0.107 S 
ATOM     43  H   UNL     1       2.422  -4.270  26.164  0.00  0.00    +0.114 HD
ENDBRANCH   1  42
TORSDOF 7
ENDMDL
