REMARK  Name = =
REMARK  6 active torsions:
REMARK  status: ('A' for Active; 'I' for Inactive)
REMARK    1  A    between atoms: N_1  and  C_16
REMARK    2  A    between atoms: C_8  and  N_32
REMARK    3  A    between atoms: C_11  and  C_17
REMARK    4  A    between atoms: C_11  and  N_27
REMARK    5  A    between atoms: N_27  and  N_30
REMARK    6  A    between atoms: C_36  and  N_38
REMARK                            x       y       z     vdW  Elec       q    Type
REMARK                         _______ _______ _______ _____ _____    ______ ____
ROOT
ATOM      1  N   UNL     1       2.320  -5.237  27.374  0.00  0.00    -0.221 N 
ATOM      2  C   UNL     1       1.580  -6.467  27.239  0.00  0.00    +0.055 C 
ATOM      3  C   UNL     1       1.151  -6.905  28.478  0.00  0.00    +0.015 C 
ATOM      4  C   UNL     1       0.416  -8.061  28.636  0.00  0.00    -0.001 C 
ATOM      5  C   UNL     1       0.110  -8.788  27.513  0.00  0.00    -0.000 C 
ATOM      6  C   UNL     1       0.522  -8.377  26.268  0.00  0.00    +0.001 C 
ATOM      7  C   UNL     1       1.260  -7.215  26.120  0.00  0.00    +0.015 C 
ATOM      8  C   UNL     1       1.590  -5.966  29.530  0.00  0.00    +0.160 C 
ATOM      9  C   UNL     1       2.323  -4.937  28.788  0.00  0.00    +0.251 C 
ATOM     10  O   UNL     1       2.889  -3.913  29.307  0.00  0.00    -0.273 OA
ENDROOT
BRANCH   1  16
ATOM     11  C   UNL     1       3.826  -5.108  25.372  0.00  0.00    +0.236 C 
ATOM     12  N   UNL     1       3.048  -5.133  24.164  0.00  0.00    -0.248 N 
ATOM     13  C   UNL     1       2.151  -4.004  24.270  0.00  0.00    +0.405 C 
ATOM     14  O   UNL     1       1.618  -3.445  23.275  0.00  0.00    -0.226 OA
ATOM     15  O   UNL     1       1.983  -3.657  25.612  0.00  0.00    -0.414 OA
ATOM     16  C   UNL     1       2.906  -4.399  26.360  0.00  0.00    +0.296 C 
ATOM     17  H   UNL     1       3.112  -5.779  23.424  0.00  0.00    +0.155 HD
BRANCH  11  18
ATOM     18  C   UNL     1       4.314  -6.406  25.836  0.00  0.00    +0.121 C 
ATOM     19  N   UNL     1       4.454  -6.624  27.157  0.00  0.00    -0.149 NA
ATOM     20  N   UNL     1       4.884  -7.772  27.592  0.00  0.00    -0.147 NA
ATOM     21  C   UNL     1       5.216  -8.805  26.804  0.00  0.00    +0.122 C 
ATOM     22  C   UNL     1       5.078  -8.595  25.437  0.00  0.00    +0.022 C 
ATOM     23  C   UNL     1       4.623  -7.386  24.917  0.00  0.00    +0.020 C 
ATOM     24  C   UNL     1       4.509  -7.237  23.552  0.00  0.00    +0.001 C 
ATOM     25  C   UNL     1       4.829  -8.246  22.669  0.00  0.00    +0.000 C 
ATOM     26  C   UNL     1       5.278  -9.441  23.189  0.00  0.00    +0.000 C 
ATOM     27  C   UNL     1       5.395  -9.595  24.559  0.00  0.00    +0.002 C 
ENDBRANCH  11  18
BRANCH  11  28
ATOM     28  N   UNL     1       5.008  -4.226  25.295  0.00  0.00    -0.149 N 
ATOM     29  C   UNL     1       4.818  -2.889  24.884  0.00  0.00    +0.325 C 
ATOM     30  O   UNL     1       5.822  -2.118  24.821  0.00  0.00    -0.263 OA
BRANCH  28  31
ATOM     31  N   UNL     1       6.279  -4.690  25.650  0.00  0.00    -0.170 NA
ATOM     32  C   UNL     1       7.308  -4.469  24.956  0.00  0.00    +0.140 C 
ENDBRANCH  28  31
ENDBRANCH  11  28
ENDBRANCH   1  16
BRANCH   8  33
ATOM     33  N   UNL     1       0.406  -5.407  30.138  0.00  0.00    -0.259 NA
ATOM     34  C   UNL     1      -0.279  -4.488  29.316  0.00  0.00    +0.090 C 
ATOM     35  C   UNL     1      -1.647  -4.210  29.895  0.00  0.00    +0.087 C 
ATOM     36  N   UNL     1      -2.350  -5.503  29.837  0.00  0.00    -0.284 NA
ATOM     37  C   UNL     1      -1.781  -6.313  30.897  0.00  0.00    +0.132 C 
ATOM     38  C   UNL     1      -0.310  -6.228  31.021  0.00  0.00    +0.106 C 
ATOM     39  H   UNL     1      -2.200  -5.948  28.931  0.00  0.00    +0.125 HD
BRANCH  37  40
ATOM     40  N   UNL     1      -2.449  -5.851  32.126  0.00  0.00    -0.257 NA
ATOM     41  C   UNL     1      -3.874  -5.753  31.932  0.00  0.00    +0.092 C 
ATOM     42  C   UNL     1      -4.649  -6.928  32.473  0.00  0.00    +0.106 C 
ATOM     43  N   UNL     1      -4.437  -7.149  33.884  0.00  0.00    -0.215 NA
ATOM     44  C   UNL     1      -3.224  -6.444  34.304  0.00  0.00    +0.106 C 
ATOM     45  C   UNL     1      -2.155  -6.725  33.242  0.00  0.00    +0.092 C 
ENDBRANCH  37  40
ENDBRANCH   8  33
TORSDOF 6
