MODEL 1
REMARK VINA RESULT:    -5.326      0.000      0.000
REMARK INTER + INTRA:         -11.865
REMARK INTER:                  -9.374
REMARK INTRA:                  -2.492
REMARK UNBOUND:                -2.492
REMARK  Name = =
REMARK  15 active torsions:
REMARK  status: ('A' for Active; 'I' for Inactive)
REMARK    1  A    between atoms: C_1  and  C_6
REMARK    2  A    between atoms: C_1  and  N_23
REMARK    3  A    between atoms: C_6  and  S_12
REMARK    4  A    between atoms: N_7  and  N_8
REMARK    5  A    between atoms: N_8  and  C_9
REMARK    6  A    between atoms: C_9  and  N_11
REMARK    7  A    between atoms: S_12  and  C_13
REMARK    8  A    between atoms: C_13  and  C_15
REMARK    9  A    between atoms: N_23  and  C_24
REMARK   10  A    between atoms: N_23  and  C_30
REMARK   11  A    between atoms: C_24  and  C_25
REMARK   12  A    between atoms: C_24  and  O_29
REMARK   13  A    between atoms: N_27  and  N_28
REMARK   14  A    between atoms: C_30  and  C_31
REMARK   15  A    between atoms: C_31  and  O_32
REMARK                            x       y       z     vdW  Elec       q    Type
REMARK                         _______ _______ _______ _____ _____    ______ ____
ROOT
ATOM      1  C   UNL     1      60.606 160.690  41.189  0.00  0.00    +0.177 C 
ATOM      2  N   UNL     1      61.362 159.931  40.254  0.00  0.00    -0.274 NA
ATOM      3  C   UNL     1      62.594 159.475  40.688  0.00  0.00    +0.082 C 
ATOM      4  C   UNL     1      62.723 159.284  42.152  0.00  0.00    +0.078 C 
ATOM      5  S   UNL     1      61.458 160.428  42.777  0.00  0.00    -0.104 S 
ATOM      6  H   UNL     1      61.518 160.515  39.433  0.00  0.00    +0.126 HD
ENDROOT
BRANCH   1   7
ATOM      7  C   UNL     1      60.703 162.123  40.871  0.00  0.00    +0.145 C 
ATOM      8  N   UNL     1      60.025 162.936  41.564  0.00  0.00    -0.174 NA
BRANCH   8   9
ATOM      9  N   UNL     1      59.867 164.275  41.567  0.00  0.00    -0.218 N 
ATOM     10  H   UNL     1      60.426 164.845  42.143  0.00  0.00    +0.176 HD
BRANCH   9  11
ATOM     11  C   UNL     1      58.863 164.851  40.713  0.00  0.00    +0.147 C 
ATOM     12  S   UNL     1      59.279 165.878  39.501  0.00  0.00    -0.017 S 
BRANCH  11  13
ATOM     13  N   UNL     1      57.493 164.561  40.876  0.00  0.00    -0.339 N 
ATOM     14  H   UNL     1      56.959 165.061  41.535  0.00  0.00    +0.144 HD
ATOM     15  H   UNL     1      57.070 163.860  40.330  0.00  0.00    +0.144 HD
ENDBRANCH  11  13
ENDBRANCH   9  11
ENDBRANCH   8   9
BRANCH   7  16
ATOM     16  S   UNL     1      61.762 162.830  39.652  0.00  0.00    -0.026 S 
BRANCH  16  17
ATOM     17  C   UNL     1      61.255 162.572  38.000  0.00  0.00    +0.227 C 
ATOM     18  O   UNL     1      61.227 161.339  37.595  0.00  0.00    -0.279 OA
BRANCH  17  19
ATOM     19  C   UNL     1      60.867 163.585  37.034  0.00  0.00    +0.046 C 
ATOM     20  C   UNL     1      61.708 164.638  36.722  0.00  0.00    +0.016 C 
ATOM     21  C   UNL     1      61.380 165.576  35.766  0.00  0.00    +0.068 C 
ATOM     22  C   UNL     1      60.188 165.501  35.078  0.00  0.00    +0.068 C 
ATOM     23  C   UNL     1      59.339 164.459  35.377  0.00  0.00    +0.012 C 
ATOM     24  C   UNL     1      59.686 163.527  36.339  0.00  0.00    +0.005 C 
ATOM     25 CL   UNL     1      59.767 166.698  33.855  0.00  0.00    -0.081 Cl
ATOM     26 CL   UNL     1      62.467 166.903  35.388  0.00  0.00    -0.081 Cl
ENDBRANCH  17  19
ENDBRANCH  16  17
ENDBRANCH   7  16
ENDBRANCH   1   7
BRANCH   1  27
ATOM     27  N   UNL     1      59.330 160.144  41.355  0.00  0.00    -0.218 NA
BRANCH  27  28
ATOM     28  C   UNL     1      58.892 159.038  40.630  0.00  0.00    +0.255 C 
BRANCH  28  29
ATOM     29  C   UNL     1      58.918 159.106  39.165  0.00  0.00    +0.279 C 
ATOM     30  O   UNL     1      59.285 158.167  38.414  0.00  0.00    -0.270 OA
ATOM     31  N   UNL     1      58.508 160.299  38.475  0.00  0.00    -0.250 N 
ATOM     32  H   UNL     1      58.211 161.071  39.008  0.00  0.00    +0.169 HD
BRANCH  31  33
ATOM     33  N   UNL     1      58.514 160.411  37.079  0.00  0.00    -0.254 NA
ATOM     34  H   UNL     1      59.232 159.800  36.692  0.00  0.00    +0.140 HD
ATOM     35  H   UNL     1      58.712 161.377  36.816  0.00  0.00    +0.140 HD
ENDBRANCH  31  33
ENDBRANCH  28  29
BRANCH  28  36
ATOM     36  O   UNL     1      59.618 157.923  41.020  0.00  0.00    -0.363 OA
ATOM     37  H   UNL     1      59.076 157.127  40.905  0.00  0.00    +0.212 HD
ENDBRANCH  28  36
ENDBRANCH  27  28
BRANCH  27  38
ATOM     38  C   UNL     1      58.630 160.459  42.541  0.00  0.00    +0.109 C 
BRANCH  38  39
ATOM     39  C   UNL     1      57.173 160.799  42.372  0.00  0.00    +0.155 C 
BRANCH  39  40
ATOM     40  O   UNL     1      57.025 161.840  41.418  0.00  0.00    -0.381 OA
ATOM     41  H   UNL     1      57.680 162.534  41.591  0.00  0.00    +0.211 HD
ENDBRANCH  39  40
ENDBRANCH  38  39
ENDBRANCH  27  38
ENDBRANCH   1  27
TORSDOF 15
ENDMDL
