REMARK  Name = =
REMARK  2 active torsions:
REMARK  status: ('A' for Active; 'I' for Inactive)
REMARK    1  A    between atoms: S_1  and  C_12
REMARK    2  A    between atoms: C_3  and  C_14
REMARK                            x       y       z     vdW  Elec       q    Type
REMARK                         _______ _______ _______ _____ _____    ______ ____
ROOT
ATOM      1  S   UNL     1      50.355 157.365  29.654  0.00  0.00    -0.022 S 
ATOM      2  N   UNL     1      49.459 158.286  30.766  0.00  0.00    -0.215 NA
ATOM      3  C   UNL     1      50.155 159.328  31.180  0.00  0.00    +0.089 C 
ATOM      4  C   UNL     1      51.454 159.419  30.606  0.00  0.00    +0.025 C 
ATOM      5  C   UNL     1      52.471 160.374  30.802  0.00  0.00    +0.002 C 
ATOM      6  C   UNL     1      53.685 160.273  30.133  0.00  0.00    +0.000 C 
ATOM      7  C   UNL     1      53.969 159.265  29.260  0.00  0.00    +0.001 C 
ATOM      8  C   UNL     1      52.999 158.321  29.049  0.00  0.00    +0.007 C 
ATOM      9  C   UNL     1      51.809 158.437  29.717  0.00  0.00    +0.043 C 
ENDROOT
BRANCH   1  11
ATOM     10 BR   UNL     1      49.152 154.623  28.802  0.00  0.00    -0.041 Br
ATOM     11  C   UNL     1      50.515 155.710  29.613  0.00  0.00    +0.075 C 
ATOM     12  C   UNL     1      51.564 155.093  30.122  0.00  0.00    +0.015 C 
ENDBRANCH   1  11
BRANCH   3  13
ATOM     13  C   UNL     1      49.464 160.176  32.138  0.00  0.00    +0.026 C 
ATOM     14  C   UNL     1      49.880 161.219  32.777  0.00  0.00    +0.037 C 
ATOM     15  I   UNL     1      48.517 162.206  34.128  0.00  0.00    -0.042 I 
ENDBRANCH   3  13
TORSDOF 2
REMARK  Name = =
REMARK  2 active torsions:
REMARK  status: ('A' for Active; 'I' for Inactive)
REMARK    1  A    between atoms: S_1  and  C_12
REMARK    2  A    between atoms: C_3  and  C_14
REMARK                            x       y       z     vdW  Elec       q    Type
REMARK                         _______ _______ _______ _____ _____    ______ ____
ROOT
ATOM      1  H   UNK     1      49.630 157.928  28.056  0.00  0.00    +0.000 HD
ENDROOT
TORSDOF 0
