REMARK  Name = =
REMARK  6 active torsions:
REMARK  status: ('A' for Active; 'I' for Inactive)
REMARK    1  A    between atoms: C_1  and  S_13
REMARK    2  A    between atoms: C_2  and  S_21
REMARK    3  A    between atoms: S_13  and  C_15
REMARK    4  A    between atoms: S_13  and  C_19
REMARK    5  A    between atoms: S_21  and  C_22
REMARK    6  A    between atoms: C_22  and  O_24
REMARK                            x       y       z     vdW  Elec       q    Type
REMARK                         _______ _______ _______ _____ _____    ______ ____
ROOT
ATOM      1  C   UNL     1     -18.749 -41.886  26.020  0.00  0.00    +0.062 C 
ATOM      2  C   UNL     1     -18.523 -41.766  24.676  0.00  0.00    +0.079 C 
ATOM      3  C   UNL     1     -17.164 -41.897  24.184  0.00  0.00    +0.202 C 
ATOM      4  O   UNL     1     -16.862 -41.802  22.968  0.00  0.00    -0.286 OA
ATOM      5  C   UNL     1     -16.027 -42.152  25.071  0.00  0.00    +0.043 C 
ATOM      6  C   UNL     1     -16.245 -42.272  26.408  0.00  0.00    +0.043 C 
ATOM      7  C   UNL     1     -15.185 -42.511  27.246  0.00  0.00    +0.003 C 
ATOM      8  C   UNL     1     -13.896 -42.634  26.771  0.00  0.00    +0.000 C 
ATOM      9  C   UNL     1     -13.671 -42.514  25.424  0.00  0.00    +0.000 C 
ATOM     10  C   UNL     1     -14.738 -42.273  24.576  0.00  0.00    +0.003 C 
ATOM     11  C   UNL     1     -17.624 -42.137  26.880  0.00  0.00    +0.201 C 
ATOM     12  O   UNL     1     -17.774 -42.259  28.148  0.00  0.00    -0.286 OA
ENDROOT
BRANCH   1  13
ATOM     13  S   UNL     1     -20.294 -41.743  26.629  0.00  0.00    -0.120 S 
ATOM     14  H   UNL     1     -20.131 -42.048  27.944  0.00  0.00    +0.098 HD
BRANCH  13  16
ATOM     15  O   UNL     1     -21.170 -44.190  26.718  0.00  0.00    -0.320 OA
ATOM     16  C   UNL     1     -21.389 -42.854  26.239  0.00  0.00    +0.180 C 
ATOM     17  C   UNL     1     -22.644 -42.910  27.117  0.00  0.00    +0.104 C 
ATOM     18  C   UNL     1     -22.550 -44.348  26.687  0.00  0.00    +0.254 C 
ATOM     19  O   UNL     1     -23.432 -45.185  26.446  0.00  0.00    -0.192 OA
ENDBRANCH  13  16
BRANCH  13  20
ATOM     20  C   UNL     1     -20.852 -40.166  26.477  0.00  0.00    +0.251 C 
ATOM     21  O   UNL     1     -22.049 -39.846  26.450  0.00  0.00    -0.277 OA
ENDBRANCH  13  20
ENDBRANCH   1  13
BRANCH   2  22
ATOM     22  S   UNL     1     -19.931 -41.458  23.676  0.00  0.00    -0.040 S 
BRANCH  22  23
ATOM     23  C   UNL     1     -20.127 -40.009  22.805  0.00  0.00    +0.203 C 
ATOM     24  S   UNL     1     -19.129 -39.330  21.720  0.00  0.00    -0.004 S 
BRANCH  23  25
ATOM     25  O   UNL     1     -21.320 -39.249  23.026  0.00  0.00    -0.496 OA
ATOM     26  H   UNL     1     -21.964 -39.554  23.635  0.00  0.00    +0.293 HD
ENDBRANCH  23  25
ENDBRANCH  22  23
ENDBRANCH   2  22
TORSDOF 6
