REMARK  Name = =
REMARK  1 active torsions:
REMARK  status: ('A' for Active; 'I' for Inactive)
REMARK    1  A    between atoms: C_1  and  C_10
REMARK                            x       y       z     vdW  Elec       q    Type
REMARK                         _______ _______ _______ _____ _____    ______ ____
ROOT
ATOM      1  C   UNL     1     -13.342 -42.536  25.794  0.00  0.00    +0.060 C 
ATOM      2  C   UNL     1     -14.365 -41.405  25.721  0.00  0.00    +0.008 C 
ATOM      3  C   UNL     1     -15.659 -42.170  25.737  0.00  0.00    +0.005 C 
ATOM      4  C   UNL     1     -16.809 -41.387  25.161  0.00  0.00    +0.022 C 
ATOM      5  C   UNL     1     -17.167 -42.115  23.927  0.00  0.00    -0.044 C 
ATOM      6  C   UNL     1     -18.337 -42.162  23.336  0.00  0.00    -0.009 C 
ATOM      7  C   UNL     1     -15.929 -42.788  23.485  0.00  0.00    +0.022 C 
ATOM      8  C   UNL     1     -15.391 -43.320  24.788  0.00  0.00    +0.005 C 
ATOM      9  C   UNL     1     -13.895 -43.499  24.760  0.00  0.00    +0.008 C 
ENDROOT
BRANCH   1  10
ATOM     10  C   UNL     1     -13.277 -43.112  27.141  0.00  0.00    +0.157 A 
ATOM     11  N   UNL     1     -12.148 -43.220  27.895  0.00  0.00    -0.113 NA
ATOM     12  N   UNL     1     -12.476 -43.788  29.045  0.00  0.00    -0.023 NA
ATOM     13  N   UNL     1     -13.775 -44.048  29.057  0.00  0.00    -0.047 NA
ATOM     14  N   UNL     1     -14.250 -43.631  27.889  0.00  0.00    -0.242 N 
ATOM     15  H   UNL     1     -15.193 -43.696  27.613  0.00  0.00    +0.192 HD
ENDBRANCH   1  10
TORSDOF 1
