REMARK  Name = =
REMARK  1 active torsions:
REMARK  status: ('A' for Active; 'I' for Inactive)
REMARK    1  A    between atoms: C_1  and  C_11
REMARK                            x       y       z     vdW  Elec       q    Type
REMARK                         _______ _______ _______ _____ _____    ______ ____
ROOT
ATOM      1  C   UNL     1     -14.797 -42.484  25.007  0.00  0.00    +0.130 C 
ATOM      2  C   UNL     1     -14.516 -43.955  25.026  0.00  0.00    +0.025 C 
ATOM      3  C   UNL     1     -14.258 -44.350  26.451  0.00  0.00    +0.006 C 
ATOM      4  C   UNL     1     -12.862 -44.887  26.679  0.00  0.00    +0.022 C 
ATOM      5  C   UNL     1     -12.479 -44.311  28.002  0.00  0.00    -0.044 C 
ATOM      6  C   UNL     1     -11.715 -44.821  28.955  0.00  0.00    -0.009 C 
ATOM      7  C   UNL     1     -13.139 -42.984  28.087  0.00  0.00    +0.022 C 
ATOM      8  C   UNL     1     -14.440 -43.135  27.314  0.00  0.00    +0.006 C 
ATOM      9  C   UNL     1     -14.707 -41.963  26.409  0.00  0.00    +0.025 C 
ATOM     10  N   UNL     1     -13.828 -41.787  24.168  0.00  0.00    -0.127 NA
ENDROOT
BRANCH   1  11
ATOM     11  C   UNL     1     -16.155 -42.184  24.460  0.00  0.00    +0.173 A 
ATOM     12  N   UNL     1     -16.569 -42.168  23.182  0.00  0.00    -0.112 NA
ATOM     13  N   UNL     1     -17.852 -41.848  23.169  0.00  0.00    -0.023 NA
ATOM     14  N   UNL     1     -18.286 -41.656  24.404  0.00  0.00    -0.047 NA
ATOM     15  N   UNL     1     -17.258 -41.860  25.182  0.00  0.00    -0.241 N 
ATOM     16  H   UNL     1     -17.280 -41.788  26.164  0.00  0.00    +0.192 HD
ENDBRANCH   1  11
TORSDOF 1
