MODEL 1
REMARK VINA RESULT:    -5.661      0.000      0.000
REMARK INTER + INTRA:          -7.564
REMARK INTER:                  -6.985
REMARK INTRA:                  -0.579
REMARK UNBOUND:                -0.579
REMARK  Name = =
REMARK  4 active torsions:
REMARK  status: ('A' for Active; 'I' for Inactive)
REMARK    1  A    between atoms: N_1  and  C_15
REMARK    2  A    between atoms: C_10  and  C_22
REMARK    3  A    between atoms: N_11  and  C_21
REMARK    4  A    between atoms: C_22  and  C_24
REMARK                            x       y       z     vdW  Elec       q    Type
REMARK                         _______ _______ _______ _____ _____    ______ ____
ROOT
ATOM      1  N   UNL     1      59.449 162.748  38.062  0.00  0.00    -0.239 NA
ATOM      2  C   UNL     1      59.615 163.916  38.911  0.00  0.00    +0.080 C 
ATOM      3  C   UNL     1      60.803 163.861  39.809  0.00  0.00    +0.044 C 
ATOM      4  C   UNL     1      61.756 162.763  39.493  0.00  0.00    -0.023 C 
ATOM      5  C   UNL     1      61.264 161.554  38.965  0.00  0.00    -0.004 C 
ATOM      6  C   UNL     1      62.152 160.567  38.678  0.00  0.00    -0.003 C 
ATOM      7  C   UNL     1      63.503 160.772  38.909  0.00  0.00    -0.000 C 
ATOM      8  C   UNL     1      64.006 161.948  39.425  0.00  0.00    -0.000 C 
ATOM      9  C   UNL     1      63.097 162.959  39.720  0.00  0.00    -0.004 C 
ATOM     10  C   UNL     1      59.824 161.541  38.805  0.00  0.00    +0.144 C 
ENDROOT
BRANCH   1  15
ATOM     11  N   UNL     1      60.180 164.251  36.438  0.00  0.00    -0.246 NA
ATOM     12  C   UNL     1      59.142 164.505  35.525  0.00  0.00    +0.092 C 
ATOM     13  C   UNL     1      58.784 163.149  35.009  0.00  0.00    +0.088 C 
ATOM     14  N   UNL     1      59.487 162.194  35.800  0.00  0.00    -0.271 NA
ATOM     15  C   UNL     1      60.181 162.888  36.817  0.00  0.00    +0.181 C 
ATOM     16  H   UNL     1      60.149 161.683  35.217  0.00  0.00    +0.126 HD
BRANCH  11  22
ATOM     17  C   UNL     1      61.810 165.965  37.086  0.00  0.00    +0.158 C 
ATOM     18  O   UNL     1      61.457 167.204  36.656  0.00  0.00    -0.352 OA
ATOM     19  C   UNL     1      61.827 167.555  35.395  0.00  0.00    +0.142 C 
ATOM     20  C   UNL     1      62.591 166.440  34.732  0.00  0.00    +0.034 C 
ATOM     21  C   UNL     1      61.642 165.231  34.717  0.00  0.00    +0.021 C 
ATOM     22  C   UNL     1      61.449 164.835  36.150  0.00  0.00    +0.090 C 
ENDBRANCH  11  22
ENDBRANCH   1  15
BRANCH  10  23
ATOM     23  C   UNL     1      59.122 160.341  38.441  0.00  0.00    +0.192 C 
ATOM     24  O   UNL     1      58.353 160.419  37.443  0.00  0.00    -0.290 OA
BRANCH  23  25
ATOM     25  C   UNL     1      59.176 159.046  39.065  0.00  0.00    +0.039 C 
ATOM     26  C   UNL     1      59.127 158.950  40.375  0.00  0.00    +0.003 C 
ENDBRANCH  23  25
ENDBRANCH  10  23
TORSDOF 4
ENDMDL
