REMARK  Name = =
REMARK  3 active torsions:
REMARK  status: ('A' for Active; 'I' for Inactive)
REMARK    1  A    between atoms: C_1  and  N_18
REMARK    2  A    between atoms: N_18  and  C_19
REMARK    3  A    between atoms: C_20  and  N_25
REMARK                            x       y       z     vdW  Elec       q    Type
REMARK                         _______ _______ _______ _____ _____    ______ ____
ROOT
ATOM      1  C   UNL     1      61.353 160.440  39.380  0.00  0.00    +0.054 C 
ATOM      2  C   UNL     1      62.623 161.173  39.771  0.00  0.00    +0.016 C 
ATOM      3  C   UNL     1      62.183 162.605  40.091  0.00  0.00    +0.005 C 
ATOM      4  C   UNL     1      61.755 163.226  38.811  0.00  0.00    +0.018 C 
ATOM      5  C   UNL     1      60.690 162.473  38.071  0.00  0.00    +0.005 C 
ATOM      6  C   UNL     1      60.703 163.037  36.664  0.00  0.00    +0.005 C 
ATOM      7  C   UNL     1      60.319 164.474  36.673  0.00  0.00    +0.021 C 
ATOM      8  C   UNL     1      60.641 165.182  37.946  0.00  0.00    -0.052 C 
ATOM      9  C   UNL     1      61.301 164.627  38.943  0.00  0.00    -0.052 C 
ATOM     10  C   UNL     1      61.554 165.446  40.154  0.00  0.00    +0.021 C 
ATOM     11  C   UNL     1      62.002 166.833  39.767  0.00  0.00    +0.005 C 
ATOM     12  C   UNL     1      61.093 167.489  38.771  0.00  0.00    +0.004 C 
ATOM     13  C   UNL     1      60.183 166.573  38.056  0.00  0.00    +0.018 C 
ATOM     14  C   UNL     1      58.852 166.759  38.698  0.00  0.00    +0.004 C 
ATOM     15  C   UNL     1      58.812 168.277  38.893  0.00  0.00    +0.000 C 
ATOM     16  C   UNL     1      60.226 168.543  39.431  0.00  0.00    +0.000 C 
ATOM     17  C   UNL     1      60.878 160.984  38.081  0.00  0.00    +0.016 C 
ENDROOT
BRANCH   1  18
ATOM     18  N   UNL     1      61.550 159.026  39.272  0.00  0.00    -0.292 NA
ATOM     19  H   UNL     1      60.638 158.633  39.039  0.00  0.00    +0.124 HD
BRANCH  18  20
ATOM     20  C   UNL     1      62.472 158.436  38.367  0.00  0.00    +0.146 C 
ATOM     21  C   UNL     1      62.404 157.986  37.064  0.00  0.00    +0.111 C 
ATOM     22  C   UNL     1      63.729 157.640  37.157  0.00  0.00    +0.212 C 
ATOM     23  O   UNL     1      64.565 157.123  36.387  0.00  0.00    -0.215 OA
ATOM     24  C   UNL     1      63.796 158.087  38.453  0.00  0.00    +0.198 C 
ATOM     25  O   UNL     1      64.685 158.161  39.366  0.00  0.00    -0.292 OA
BRANCH  21  26
ATOM     26  N   UNL     1      61.406 157.902  36.035  0.00  0.00    -0.318 NA
ATOM     27  H   UNL     1      61.814 157.484  35.199  0.00  0.00    +0.119 HD
ATOM     28  H   UNL     1      61.065 158.838  35.815  0.00  0.00    +0.119 HD
ENDBRANCH  21  26
ENDBRANCH  18  20
ENDBRANCH   1  18
TORSDOF 3
