REMARK  Name = =
REMARK  0 active torsions:
REMARK  status: ('A' for Active; 'I' for Inactive)
REMARK                            x       y       z     vdW  Elec       q    Type
REMARK                         _______ _______ _______ _____ _____    ______ ____
ROOT
ATOM      1  N   UNL     1      50.255 155.986  29.605  0.00  0.00    -0.299 NA
ATOM      2  C   UNL     1      50.113 157.414  29.526  0.00  0.00    +0.054 C 
ATOM      3  C   UNL     1      51.419 158.002  29.289  0.00  0.00    +0.016 C 
ATOM      4  C   UNL     1      52.433 156.911  29.379  0.00  0.00    +0.018 C 
ATOM      5  C   UNL     1      51.615 155.656  29.273  0.00  0.00    +0.069 C 
ATOM      6  C   UNL     1      51.777 159.277  29.908  0.00  0.00    +0.001 C 
ATOM      7  C   UNL     1      50.758 159.921  30.778  0.00  0.00    +0.000 C 
ATOM      8  C   UNL     1      49.345 159.509  30.495  0.00  0.00    +0.001 C 
ATOM      9  C   UNL     1      49.277 157.999  30.608  0.00  0.00    +0.016 C 
ATOM     10  H   UNL     1      49.619 155.538  28.945  0.00  0.00    +0.123 HD
ENDROOT
TORSDOF 0
