REMARK  Name = =
REMARK  1 active torsions:
REMARK  status: ('A' for Active; 'I' for Inactive)
REMARK    1  A    between atoms: N_1  and  N_10
REMARK                            x       y       z     vdW  Elec       q    Type
REMARK                         _______ _______ _______ _____ _____    ______ ____
ROOT
ATOM      1  N   UNL     1      50.264 156.635  29.757  0.00  0.00    -0.190 NA
ATOM      2  C   UNL     1      51.503 156.015  29.659  0.00  0.00    +0.077 C 
ATOM      3  C   UNL     1      51.491 155.290  28.320  0.00  0.00    +0.018 C 
ATOM      4  C   UNL     1      50.036 154.900  28.178  0.00  0.00    +0.021 C 
ATOM      5  C   UNL     1      49.339 155.548  29.322  0.00  0.00    +0.094 C 
ATOM      6  C   UNL     1      51.854 156.183  27.187  0.00  0.00    +0.001 C 
ATOM      7  C   UNL     1      53.204 156.851  27.352  0.00  0.00    +0.000 C 
ATOM      8  C   UNL     1      53.169 157.615  28.661  0.00  0.00    +0.001 C 
ATOM      9  C   UNL     1      52.773 156.705  29.812  0.00  0.00    +0.018 C 
ENDROOT
BRANCH   1  10
ATOM     10  N   UNL     1      49.764 157.890  30.129  0.00  0.00    -0.177 N 
ATOM     11  N   UNL     1      48.548 158.357  29.819  0.00  0.00    -0.215 N 
ATOM     12  C   UNL     1      48.377 159.582  30.324  0.00  0.00    +0.264 C 
ATOM     13  O   UNL     1      47.362 160.339  30.238  0.00  0.00    -0.269 OA
ATOM     14  C   UNL     1      49.547 159.887  30.978  0.00  0.00    +0.078 C 
ATOM     15  C   UNL     1      50.408 158.816  30.847  0.00  0.00    +0.103 C 
ATOM     16  H   UNL     1      47.875 157.867  29.293  0.00  0.00    +0.175 HD
ENDBRANCH   1  10
TORSDOF 1
