REMARK  Name = =
REMARK  4 active torsions:
REMARK  status: ('A' for Active; 'I' for Inactive)
REMARK    1  A    between atoms: N_1  and  N_10
REMARK    2  A    between atoms: C_5  and  N_16
REMARK    3  A    between atoms: N_16  and  C_17
REMARK    4  A    between atoms: C_25  and  O_27
REMARK                            x       y       z     vdW  Elec       q    Type
REMARK                         _______ _______ _______ _____ _____    ______ ____
ROOT
ATOM      1  N   UNL     1      50.276 156.986  29.409  0.00  0.00    -0.173 NA
ATOM      2  C   UNL     1      51.220 157.796  28.683  0.00  0.00    +0.079 C 
ATOM      3  C   UNL     1      51.703 157.045  27.536  0.00  0.00    +0.020 C 
ATOM      4  C   UNL     1      50.999 155.740  27.563  0.00  0.00    +0.039 C 
ATOM      5  C   UNL     1      50.238 155.665  28.864  0.00  0.00    +0.149 C 
ATOM      6  C   UNL     1      53.115 157.066  27.149  0.00  0.00    +0.001 C 
ATOM      7  C   UNL     1      54.111 157.580  28.120  0.00  0.00    +0.000 C 
ATOM      8  C   UNL     1      53.548 158.692  28.922  0.00  0.00    +0.001 C 
ATOM      9  C   UNL     1      52.244 158.380  29.595  0.00  0.00    +0.018 C 
ENDROOT
BRANCH   1  10
ATOM     10  N   UNL     1      49.511 157.492  30.481  0.00  0.00    -0.176 N 
ATOM     11  N   UNL     1      48.817 158.635  30.449  0.00  0.00    -0.215 N 
ATOM     12  C   UNL     1      48.207 158.853  31.628  0.00  0.00    +0.264 C 
ATOM     13  O   UNL     1      47.479 159.847  31.907  0.00  0.00    -0.269 OA
ATOM     14  C   UNL     1      48.529 157.796  32.451  0.00  0.00    +0.078 C 
ATOM     15  C   UNL     1      49.332 156.983  31.702  0.00  0.00    +0.103 C 
ATOM     16  H   UNL     1      48.760 159.234  29.670  0.00  0.00    +0.175 HD
ENDBRANCH   1  10
BRANCH   5  17
ATOM     17  N   UNL     1      50.802 154.665  29.720  0.00  0.00    -0.319 N 
ATOM     18  H   UNL     1      50.900 154.836  30.685  0.00  0.00    +0.148 HD
BRANCH  17  19
ATOM     19  C   UNL     1      51.220 153.424  29.168  0.00  0.00    +0.066 C 
ATOM     20  C   UNL     1      50.740 152.250  29.761  0.00  0.00    +0.095 C 
ATOM     21  N   UNL     1      49.905 152.327  30.824  0.00  0.00    -0.243 NA
ATOM     22  C   UNL     1      49.446 151.199  31.388  0.00  0.00    +0.099 C 
ATOM     23  C   UNL     1      49.820 149.959  30.892  0.00  0.00    +0.021 C 
ATOM     24  C   UNL     1      50.679 149.867  29.798  0.00  0.00    +0.003 C 
ATOM     25  C   UNL     1      51.134 151.047  29.238  0.00  0.00    +0.022 C 
ATOM     26  C   UNL     1      51.991 150.982  28.142  0.00  0.00    +0.038 C 
ATOM     27  C   UNL     1      52.465 152.129  27.556  0.00  0.00    +0.135 C 
ATOM     28  C   UNL     1      52.066 153.328  28.083  0.00  0.00    +0.052 C 
BRANCH  27  29
ATOM     29  O   UNL     1      53.321 152.141  26.459  0.00  0.00    -0.505 OA
ATOM     30  H   UNL     1      53.612 152.956  26.101  0.00  0.00    +0.292 HD
ENDBRANCH  27  29
ENDBRANCH  17  19
ENDBRANCH   5  17
TORSDOF 4
