REMARK  Name = =
REMARK  7 active torsions:
REMARK  status: ('A' for Active; 'I' for Inactive)
REMARK    1  A    between atoms: N_1  and  N_10
REMARK    2  A    between atoms: C_5  and  N_16
REMARK    3  A    between atoms: C_9  and  S_28
REMARK    4  A    between atoms: N_16  and  C_17
REMARK    5  A    between atoms: C_25  and  O_27
REMARK    6  A    between atoms: S_28  and  S_29
REMARK    7  A    between atoms: S_28  and  S_30
REMARK                            x       y       z     vdW  Elec       q    Type
REMARK                         _______ _______ _______ _____ _____    ______ ____
ROOT
ATOM      1  N   UNL     1      52.752 154.001  28.198  0.00  0.00    -0.172 NA
ATOM      2  C   UNL     1      52.217 152.851  28.894  0.00  0.00    +0.089 C 
ATOM      3  C   UNL     1      51.182 153.595  29.758  0.00  0.00    +0.020 C 
ATOM      4  C   UNL     1      52.129 154.604  30.419  0.00  0.00    +0.040 C 
ATOM      5  C   UNL     1      53.096 154.927  29.272  0.00  0.00    +0.149 C 
ATOM      6  C   UNL     1      50.480 152.716  30.725  0.00  0.00    +0.002 C 
ATOM      7  C   UNL     1      50.024 151.466  30.015  0.00  0.00    +0.001 C 
ATOM      8  C   UNL     1      50.194 151.552  28.544  0.00  0.00    +0.012 C 
ATOM      9  C   UNL     1      51.606 151.801  28.062  0.00  0.00    +0.061 C 
ENDROOT
BRANCH   1  10
ATOM     10  N   UNL     1      52.935 154.264  26.852  0.00  0.00    -0.176 N 
ATOM     11  N   UNL     1      53.958 153.850  26.132  0.00  0.00    -0.215 N 
ATOM     12  C   UNL     1      53.870 154.251  24.869  0.00  0.00    +0.264 C 
ATOM     13  O   UNL     1      54.703 154.006  23.946  0.00  0.00    -0.269 OA
ATOM     14  C   UNL     1      52.704 154.972  24.786  0.00  0.00    +0.078 C 
ATOM     15  C   UNL     1      52.136 154.968  26.033  0.00  0.00    +0.103 C 
ATOM     16  H   UNL     1      54.699 153.308  26.488  0.00  0.00    +0.175 HD
ENDBRANCH   1  10
BRANCH   5  17
ATOM     17  N   UNL     1      52.829 156.295  28.881  0.00  0.00    -0.319 N 
ATOM     18  H   UNL     1      53.492 156.772  28.332  0.00  0.00    +0.148 HD
BRANCH  17  19
ATOM     19  C   UNL     1      51.639 156.972  29.265  0.00  0.00    +0.066 C 
ATOM     20  C   UNL     1      51.718 158.299  29.695  0.00  0.00    +0.095 C 
ATOM     21  N   UNL     1      52.926 158.902  29.731  0.00  0.00    -0.243 NA
ATOM     22  C   UNL     1      53.014 160.178  30.144  0.00  0.00    +0.099 C 
ATOM     23  C   UNL     1      51.919 160.903  30.532  0.00  0.00    +0.021 C 
ATOM     24  C   UNL     1      50.685 160.296  30.496  0.00  0.00    +0.003 C 
ATOM     25  C   UNL     1      50.575 158.973  30.072  0.00  0.00    +0.022 C 
ATOM     26  C   UNL     1      49.348 158.336  30.026  0.00  0.00    +0.038 C 
ATOM     27  C   UNL     1      49.255 157.029  29.607  0.00  0.00    +0.135 C 
ATOM     28  C   UNL     1      50.402 156.380  29.236  0.00  0.00    +0.052 C 
BRANCH  27  29
ATOM     29  O   UNL     1      48.016 156.365  29.553  0.00  0.00    -0.505 OA
ATOM     30  H   UNL     1      47.233 156.812  29.808  0.00  0.00    +0.292 HD
ENDBRANCH  27  29
ENDBRANCH  17  19
ENDBRANCH   5  17
BRANCH   9  31
ATOM     31  S   UNL     1      52.510 150.348  27.986  0.00  0.00    -0.151 S 
ATOM     32  H   UNL     1      52.006 149.092  27.851  0.00  0.00    +0.104 HD
BRANCH  31  33
ATOM     33  S   UNL     1      53.181 150.259  29.505  0.00  0.00    -0.123 S 
ATOM     34  H   UNL     1      53.748 151.454  29.821  0.00  0.00    +0.113 HD
ENDBRANCH  31  33
BRANCH  31  35
ATOM     35  S   UNL     1      53.358 150.572  26.519  0.00  0.00    -0.123 S 
ATOM     36  H   UNL     1      53.927 151.807  26.508  0.00  0.00    +0.113 HD
ENDBRANCH  31  35
ENDBRANCH   9  31
TORSDOF 7
