MODEL 1
REMARK VINA RESULT:    -8.752      0.000      0.000
REMARK INTER + INTRA:         -12.475
REMARK INTER:                 -12.589
REMARK INTRA:                   0.114
REMARK UNBOUND:                 0.114
REMARK  Name = =
REMARK  9 active torsions:
REMARK  status: ('A' for Active; 'I' for Inactive)
REMARK    1  A    between atoms: C_1  and  N_9
REMARK    2  A    between atoms: C_1  and  N_21
REMARK    3  A    between atoms: C_4  and  C_38
REMARK    4  A    between atoms: C_5  and  S_37
REMARK    5  A    between atoms: N_12  and  C_15
REMARK    6  A    between atoms: N_21  and  C_25
REMARK    7  A    between atoms: C_22  and  C_34
REMARK    8  A    between atoms: C_34  and  O_36
REMARK    9  A    between atoms: C_38  and  O_40
REMARK                            x       y       z     vdW  Elec       q    Type
REMARK                         _______ _______ _______ _____ _____    ______ ____
ROOT
ATOM      1  C   UNL     1       1.246  -5.382  29.040  0.00  0.00    +0.198 C 
ATOM      2  C   UNL     1       0.981  -5.828  30.372  0.00  0.00    +0.124 C 
ATOM      3  N   UNL     1       2.234  -5.238  30.839  0.00  0.00    -0.249 N 
ATOM      4  C   UNL     1       2.282  -5.626  32.223  0.00  0.00    +0.132 C 
ATOM      5  C   UNL     1       1.574  -6.766  32.380  0.00  0.00    +0.021 C 
ATOM      6  C   UNL     1       1.027  -7.136  30.997  0.00  0.00    +0.058 C 
ATOM      7  C   UNL     1       2.498  -4.709  29.544  0.00  0.00    +0.262 C 
ATOM      8  O   UNL     1       3.427  -3.990  29.118  0.00  0.00    -0.271 OA
ENDROOT
BRANCH   1   9
ATOM      9  N   UNL     1       0.258  -4.261  28.709  0.00  0.00    -0.249 NA
ATOM     10  C   UNL     1       0.135  -3.454  29.928  0.00  0.00    +0.095 C 
ATOM     11  C   UNL     1      -1.064  -2.548  29.720  0.00  0.00    +0.110 C 
ATOM     12  N   UNL     1      -2.209  -3.427  30.027  0.00  0.00    -0.290 N 
ATOM     13  C   UNL     1      -1.938  -4.834  29.724  0.00  0.00    +0.110 C 
ATOM     14  C   UNL     1      -1.037  -4.925  28.494  0.00  0.00    +0.095 C 
BRANCH  12  15
ATOM     15  C   UNL     1      -3.398  -2.924  30.548  0.00  0.00    +0.132 C 
ATOM     16  C   UNL     1      -4.352  -3.744  31.107  0.00  0.00    +0.034 C 
ATOM     17  C   UNL     1      -5.549  -3.259  31.632  0.00  0.00    +0.004 C 
ATOM     18  C   UNL     1      -5.800  -1.903  31.592  0.00  0.00    +0.021 C 
ATOM     19  C   UNL     1      -4.830  -1.105  31.028  0.00  0.00    +0.100 C 
ATOM     20  N   UNL     1      -3.685  -1.601  30.531  0.00  0.00    -0.229 NA
ENDBRANCH  12  15
ENDBRANCH   1   9
BRANCH   1  21
ATOM     21  N   UNL     1       1.373  -6.195  27.893  0.00  0.00    -0.230 N 
ATOM     22  C   UNL     1       1.769  -5.778  26.611  0.00  0.00    +0.328 C 
ATOM     23  O   UNL     1       1.943  -6.753  25.714  0.00  0.00    -0.263 OA
BRANCH  21  25
ATOM     24  O   UNL     1       0.105  -8.020  27.131  0.00  0.00    -0.332 OA
ATOM     25  C   UNL     1       1.100  -7.678  28.027  0.00  0.00    +0.201 C 
ATOM     26  C   UNL     1       2.374  -8.451  27.877  0.00  0.00    +0.077 C 
ATOM     27  C   UNL     1       2.152  -9.800  27.267  0.00  0.00    -0.020 C 
ATOM     28  C   UNL     1       0.882 -10.208  26.969  0.00  0.00    +0.004 C 
ATOM     29  C   UNL     1       0.734 -11.478  26.405  0.00  0.00    -0.002 C 
ATOM     30  C   UNL     1       1.816 -12.297  26.150  0.00  0.00    -0.000 C 
ATOM     31  C   UNL     1       3.092 -11.882  26.450  0.00  0.00    -0.000 C 
ATOM     32  C   UNL     1       3.242 -10.631  27.008  0.00  0.00    -0.004 C 
ATOM     33  C   UNL     1      -0.286  -9.340  27.237  0.00  0.00    +0.170 C 
ENDBRANCH  21  25
BRANCH  22  34
ATOM     34  C   UNL     1       2.031  -4.507  26.029  0.00  0.00    +0.393 C 
ATOM     35  O   UNL     1       3.102  -4.223  25.469  0.00  0.00    -0.240 OA
BRANCH  34  36
ATOM     36  O   UNL     1       1.091  -3.457  26.037  0.00  0.00    -0.474 OA
ATOM     37  H   UNL     1       0.741  -3.136  25.230  0.00  0.00    +0.296 HD
ENDBRANCH  34  36
ENDBRANCH  22  34
ENDBRANCH   1  21
BRANCH   5  38
ATOM     38  S   UNL     1       1.346  -7.639  33.909  0.00  0.00    -0.144 S 
ATOM     39  H   UNL     1       0.301  -7.095  34.590  0.00  0.00    +0.107 HD
ENDBRANCH   5  38
BRANCH   4  40
ATOM     40  C   UNL     1       2.981  -4.911  33.279  0.00  0.00    +0.352 C 
ATOM     41  O   UNL     1       4.172  -5.154  33.592  0.00  0.00    -0.244 OA
BRANCH  40  42
ATOM     42  O   UNL     1       2.314  -3.919  33.973  0.00  0.00    -0.476 OA
ATOM     43  H   UNL     1       1.391  -3.805  33.857  0.00  0.00    +0.295 HD
ENDBRANCH  40  42
ENDBRANCH   4  40
TORSDOF 9
ENDMDL
