MODEL 1
REMARK VINA RESULT:   -11.101      0.000      0.000
REMARK INTER + INTRA:         -13.644
REMARK INTER:                 -13.697
REMARK INTRA:                   0.052
REMARK UNBOUND:                 0.052
REMARK  Name = =
REMARK  4 active torsions:
REMARK  status: ('A' for Active; 'I' for Inactive)
REMARK    1  A    between atoms: C_4  and  N_28
REMARK    2  A    between atoms: C_6  and  C_20
REMARK    3  A    between atoms: C_16  and  C_25
REMARK    4  A    between atoms: C_29  and  N_34
REMARK                            x       y       z     vdW  Elec       q    Type
REMARK                         _______ _______ _______ _____ _____    ______ ____
ROOT
ATOM      1  C   UNL     1       2.363  -4.357  29.334  0.00  0.00    -0.025 C 
ATOM      2  C   UNL     1       0.889  -3.990  29.206  0.00  0.00    +0.097 C 
ATOM      3  C   UNL     1       0.133  -5.222  28.764  0.00  0.00    +0.041 C 
ATOM      4  C   UNL     1       0.876  -6.261  29.524  0.00  0.00    +0.065 C 
ATOM      5  C   UNL     1       2.296  -5.877  29.074  0.00  0.00    +0.040 C 
ATOM      6  C   UNL     1      -0.781  -2.937  28.059  0.00  0.00    +0.085 C 
ATOM      7  N   UNL     1       0.527  -3.196  28.066  0.00  0.00    -0.283 N 
ATOM      8  C   UNL     1       1.349  -2.729  27.126  0.00  0.00    +0.052 C 
ATOM      9  C   UNL     1       2.700  -3.053  27.217  0.00  0.00    +0.013 C 
ATOM     10  C   UNL     1       3.573  -2.558  26.214  0.00  0.00    +0.002 C 
ATOM     11  C   UNL     1       3.059  -1.778  25.189  0.00  0.00    +0.000 C 
ATOM     12  C   UNL     1       1.715  -1.490  25.152  0.00  0.00    +0.001 C 
ATOM     13  C   UNL     1       0.847  -1.950  26.101  0.00  0.00    +0.014 C 
ATOM     14  C   UNL     1      -0.496  -1.661  26.058  0.00  0.00    +0.003 C 
ATOM     15  C   UNL     1      -1.330  -2.152  27.038  0.00  0.00    +0.018 C 
ATOM     16  C   UNL     1       4.904  -2.870  26.260  0.00  0.00    +0.011 C 
ATOM     17  C   UNL     1       5.377  -3.678  27.294  0.00  0.00    +0.001 C 
ATOM     18  C   UNL     1       4.572  -4.168  28.265  0.00  0.00    -0.001 C 
ATOM     19  C   UNL     1       3.198  -3.856  28.240  0.00  0.00    -0.005 C 
ENDROOT
BRANCH   4  20
ATOM     20  N   UNL     1       0.612  -7.620  29.287  0.00  0.00    -0.256 NA
ATOM     21  C   UNL     1      -0.268  -8.291  30.142  0.00  0.00    +0.157 C 
ATOM     22  C   UNL     1      -1.468  -8.891  29.410  0.00  0.00    +0.106 C 
ATOM     23  N   UNL     1      -0.843  -9.847  28.480  0.00  0.00    -0.294 NA
ATOM     24  C   UNL     1      -0.298  -9.045  27.419  0.00  0.00    +0.086 C 
ATOM     25  C   UNL     1       0.332  -7.814  27.900  0.00  0.00    +0.091 C 
ATOM     26  H   UNL     1      -1.538 -10.497  28.115  0.00  0.00    +0.123 HD
BRANCH  21  27
ATOM     27  N   UNL     1      -0.745  -7.664  31.332  0.00  0.00    -0.241 N 
ATOM     28  C   UNL     1      -2.032  -7.510  31.719  0.00  0.00    +0.160 C 
ATOM     29  C   UNL     1      -2.048  -6.876  32.936  0.00  0.00    +0.146 C 
ATOM     30  N   UNL     1      -0.781  -6.667  33.253  0.00  0.00    -0.222 NA
ATOM     31  C   UNL     1       0.013  -7.137  32.294  0.00  0.00    +0.170 C 
ATOM     32  C   UNL     1      -3.273  -6.613  33.529  0.00  0.00    +0.148 C 
ATOM     33  N   UNL     1      -4.432  -6.960  32.940  0.00  0.00    -0.208 NA
ATOM     34  C   UNL     1      -4.407  -7.579  31.751  0.00  0.00    +0.201 C 
ATOM     35  N   UNL     1      -3.222  -7.836  31.173  0.00  0.00    -0.207 NA
ATOM     36  N   UNL     1      -3.259  -5.962  34.782  0.00  0.00    -0.341 N 
ATOM     37  H   UNL     1      -2.402  -5.715  35.199  0.00  0.00    +0.144 HD
ATOM     38  H   UNL     1      -4.107  -5.756  35.239  0.00  0.00    +0.144 HD
ENDBRANCH  21  27
ENDBRANCH   4  20
BRANCH   6  39
ATOM     39  C   UNL     1      -1.689  -3.435  29.082  0.00  0.00    +0.163 C 
ATOM     40  N   UNL     1      -2.758  -4.214  28.843  0.00  0.00    -0.205 NA
ATOM     41  C   UNL     1      -3.385  -4.499  30.006  0.00  0.00    +0.218 C 
ATOM     42  N   UNL     1      -2.687  -3.885  30.964  0.00  0.00    -0.157 NA
ATOM     43  N   UNL     1      -1.666  -3.245  30.405  0.00  0.00    -0.217 N 
ATOM     44  H   UNL     1      -0.995  -2.712  30.890  0.00  0.00    +0.176 HD
ENDBRANCH   6  39
BRANCH  16  45
ATOM     45  C   UNL     1       5.866  -2.332  25.309  0.00  0.00    +0.058 C 
ATOM     46  C   UNL     1       6.676  -1.341  25.677  0.00  0.00    +0.012 C 
ATOM     47 CL   UNL     1       5.953  -2.863  23.659  0.00  0.00    -0.082 Cl
ENDBRANCH  16  45
TORSDOF 4
ENDMDL
