REMARK  Name = =
REMARK  0 active torsions:
REMARK  status: ('A' for Active; 'I' for Inactive)
REMARK                            x       y       z     vdW  Elec       q    Type
REMARK                         _______ _______ _______ _____ _____    ______ ____
ROOT
ATOM      1  N   UNL     1     -13.193 -43.905  27.305  0.00  0.00    -0.214 N 
ATOM      2  C   UNL     1     -12.706 -45.260  27.233  0.00  0.00    +0.112 C 
ATOM      3  C   UNL     1     -11.915 -45.020  28.507  0.00  0.00    +0.108 C 
ATOM      4  C   UNL     1     -12.469 -43.658  28.497  0.00  0.00    +0.234 C 
ATOM      5  O   UNL     1     -12.341 -42.670  29.259  0.00  0.00    -0.274 OA
ATOM      6  C   UNL     1     -14.062 -43.137  26.488  0.00  0.00    +0.307 C 
ATOM      7  O   UNL     1     -14.602 -43.590  25.446  0.00  0.00    -0.252 OA
ATOM      8  N   UNL     1     -14.380 -41.775  26.812  0.00  0.00    -0.313 N 
ATOM      9  H   UNL     1     -13.992 -41.356  27.614  0.00  0.00    +0.146 HD
ATOM     10  H   UNL     1     -14.986 -41.260  26.232  0.00  0.00    +0.146 HD
ENDROOT
TORSDOF 0
