REMARK  Name = =
REMARK  1 active torsions:
REMARK  status: ('A' for Active; 'I' for Inactive)
REMARK    1  A    between atoms: N_8  and  C_9
REMARK                            x       y       z     vdW  Elec       q    Type
REMARK                         _______ _______ _______ _____ _____    ______ ____
ROOT
ATOM      1  N   UNL     1     -13.399 -44.028  27.554  0.00  0.00    -0.214 N 
ATOM      2  C   UNL     1     -12.521 -44.860  26.795  0.00  0.00    +0.112 C 
ATOM      3  C   UNL     1     -12.091 -45.493  28.087  0.00  0.00    +0.108 C 
ATOM      4  C   UNL     1     -12.568 -44.217  28.681  0.00  0.00    +0.234 C 
ATOM      5  O   UNL     1     -12.283 -43.624  29.763  0.00  0.00    -0.274 OA
ATOM      6  C   UNL     1     -14.618 -43.264  27.403  0.00  0.00    +0.314 C 
ATOM      7  O   UNL     1     -15.057 -42.648  28.397  0.00  0.00    -0.252 OA
ATOM      8  N   UNL     1     -15.300 -43.204  26.187  0.00  0.00    -0.265 N 
ATOM      9  H   UNL     1     -14.911 -43.708  25.436  0.00  0.00    +0.157 HD
ENDROOT
BRANCH   8  10
ATOM     10  C   UNL     1     -16.494 -42.492  25.923  0.00  0.00    +0.086 C 
ATOM     11  C   UNL     1     -16.733 -42.037  24.613  0.00  0.00    +0.148 C 
ATOM     12  C   UNL     1     -17.853 -41.339  24.243  0.00  0.00    +0.017 C 
ATOM     13  C   UNL     1     -18.829 -41.042  25.168  0.00  0.00    -0.001 C 
ATOM     14  C   UNL     1     -18.623 -41.475  26.454  0.00  0.00    +0.001 C 
ATOM     15  C   UNL     1     -17.477 -42.187  26.825  0.00  0.00    +0.018 C 
ATOM     16  C   UNL     1     -17.775 -41.020  22.791  0.00  0.00    +0.077 C 
ATOM     17  C   UNL     1     -16.289 -41.165  22.532  0.00  0.00    +0.210 C 
ATOM     18  O   UNL     1     -15.942 -42.182  23.484  0.00  0.00    -0.474 OA
ENDBRANCH   8  10
TORSDOF 1
