REMARK  Name = =
REMARK  7 active torsions:
REMARK  status: ('A' for Active; 'I' for Inactive)
REMARK    1  A    between atoms: C_1  and  C_11
REMARK    2  A    between atoms: C_1  and  N_29
REMARK    3  A    between atoms: C_12  and  P_21
REMARK    4  A    between atoms: C_18  and  N_27
REMARK    5  A    between atoms: P_21  and  O_26
REMARK    6  A    between atoms: C_32  and  C_39
REMARK    7  A    between atoms: C_34  and  N_38
REMARK                            x       y       z     vdW  Elec       q    Type
REMARK                         _______ _______ _______ _____ _____    ______ ____
ROOT
ATOM      1  C   UNL     1       0.485  -5.867  29.142  0.00  0.00    +0.245 C 
ATOM      2  O   UNL     1      -0.062  -4.840  29.977  0.00  0.00    -0.458 OA
ATOM      3  C   UNL     1      -1.113  -4.056  29.514  0.00  0.00    +0.174 C 
ATOM      4  C   UNL     1      -1.421  -4.054  28.191  0.00  0.00    +0.173 C 
ATOM      5  C   UNL     1      -2.462  -3.281  27.718  0.00  0.00    +0.040 C 
ATOM      6  C   UNL     1      -3.193  -2.508  28.586  0.00  0.00    +0.003 C 
ATOM      7  C   UNL     1      -2.863  -2.527  29.919  0.00  0.00    +0.003 C 
ATOM      8  C   UNL     1      -1.827  -3.292  30.420  0.00  0.00    +0.040 C 
ATOM      9  O   UNL     1      -0.679  -4.836  27.313  0.00  0.00    -0.467 OA
ATOM     10  C   UNL     1       0.584  -5.383  27.725  0.00  0.00    +0.266 C 
ENDROOT
BRANCH   1  11
ATOM     11  C   UNL     1       1.681  -6.527  29.627  0.00  0.00    +0.096 C 
ATOM     12  C   UNL     1       2.389  -6.073  30.845  0.00  0.00    +0.116 C 
ATOM     13  C   UNL     1       3.084  -4.744  30.701  0.00  0.00    +0.214 C 
ATOM     14  O   UNL     1       3.646  -4.523  29.442  0.00  0.00    -0.475 OA
ATOM     15  C   UNL     1       3.666  -5.537  28.506  0.00  0.00    +0.135 C 
ATOM     16  C   UNL     1       2.720  -6.566  28.532  0.00  0.00    +0.019 C 
ATOM     17  C   UNL     1       2.757  -7.567  27.592  0.00  0.00    +0.018 C 
ATOM     18  C   UNL     1       3.722  -7.603  26.584  0.00  0.00    +0.081 C 
ATOM     19  C   UNL     1       4.643  -6.579  26.577  0.00  0.00    +0.022 C 
ATOM     20  C   UNL     1       4.623  -5.569  27.509  0.00  0.00    +0.038 C 
BRANCH  12  21
ATOM     21  P   UNL     1       1.703  -6.383  32.416  0.00  0.00    +0.120 P 
ATOM     22  O   UNL     1       1.153  -7.758  32.035  0.00  0.00    -0.277 OA
ATOM     23  H   UNL     1       2.335  -5.346  33.166  0.00  0.00    +0.116 HD
ATOM     24  S   UNL     1      -0.001  -7.114  33.188  0.00  0.00    -0.028 S 
ATOM     25  H   UNL     1      -1.221  -6.652  32.803  0.00  0.00    +0.129 HD
BRANCH  21  26
ATOM     26  O   UNL     1       0.344  -5.530  32.055  0.00  0.00    -0.353 OA
ATOM     27  H   UNL     1       0.495  -4.589  32.237  0.00  0.00    +0.217 HD
ENDBRANCH  21  26
ENDBRANCH  12  21
BRANCH  18  28
ATOM     28  N   UNL     1       3.727  -8.656  25.628  0.00  0.00    -0.242 NA
ATOM     29  C   UNL     1       3.495  -8.412  24.374  0.00  0.00    +0.119 C 
ENDBRANCH  18  28
ENDBRANCH   1  11
BRANCH   1  30
ATOM     30  N   UNL     1      -0.607  -6.872  29.162  0.00  0.00    -0.221 N 
ATOM     31  C   UNL     1      -1.682  -6.930  29.953  0.00  0.00    +0.161 A 
ATOM     32  N   UNL     1      -2.144  -6.173  30.938  0.00  0.00    -0.214 NA
ATOM     33  C   UNL     1      -3.280  -6.455  31.594  0.00  0.00    +0.142 A 
ATOM     34  N   UNL     1      -4.004  -7.542  31.267  0.00  0.00    -0.215 NA
ATOM     35  C   UNL     1      -3.604  -8.367  30.275  0.00  0.00    +0.147 A 
ATOM     36  C   UNL     1      -2.439  -8.058  29.618  0.00  0.00    +0.146 A 
ATOM     37  N   UNL     1      -1.792  -8.656  28.621  0.00  0.00    -0.222 NA
ATOM     38  C   UNL     1      -0.704  -7.946  28.356  0.00  0.00    +0.171 C 
BRANCH  35  39
ATOM     39  N   UNL     1      -4.330  -9.515  29.898  0.00  0.00    -0.341 N 
ATOM     40  H   UNL     1      -5.166  -9.744  30.364  0.00  0.00    +0.144 HD
ATOM     41  H   UNL     1      -4.001 -10.088  29.169  0.00  0.00    +0.144 HD
ENDBRANCH  35  39
BRANCH  33  42
ATOM     42  C   UNL     1      -3.802  -5.607  32.703  0.00  0.00    +0.066 C 
ATOM     43  C   UNL     1      -3.639  -6.342  34.038  0.00  0.00    +0.008 C 
ENDBRANCH  33  42
ENDBRANCH   1  30
TORSDOF 7
REMARK  Name = =
REMARK  7 active torsions:
REMARK  status: ('A' for Active; 'I' for Inactive)
REMARK    1  A    between atoms: C_1  and  C_11
REMARK    2  A    between atoms: C_1  and  N_29
REMARK    3  A    between atoms: C_12  and  P_21
REMARK    4  A    between atoms: C_18  and  N_27
REMARK    5  A    between atoms: P_21  and  O_26
REMARK    6  A    between atoms: C_32  and  C_39
REMARK    7  A    between atoms: C_34  and  N_38
REMARK                            x       y       z     vdW  Elec       q    Type
REMARK                         _______ _______ _______ _____ _____    ______ ____
ROOT
ATOM      1  O   HOH     1       2.875  -6.661  33.588  0.00  0.00    -0.253 OA
ATOM      2  H   HOH     0       3.845  -6.661  33.588  0.00  0.00    +0.253 HD
ENDROOT
TORSDOF 0
