REMARK  Name = =
REMARK  0 active torsions:
REMARK  status: ('A' for Active; 'I' for Inactive)
REMARK                            x       y       z     vdW  Elec       q    Type
REMARK                         _______ _______ _______ _____ _____    ______ ____
ROOT
ATOM      1  C   UNL     1      -4.327  -4.517  31.606  0.00  0.00    +0.037 C 
ATOM      2  C   UNL     1      -3.733  -5.755  31.852  0.00  0.00    +0.135 C 
ATOM      3  C   UNL     1      -2.738  -6.273  31.058  0.00  0.00    +0.016 C 
ATOM      4  C   UNL     1      -2.298  -5.546  29.968  0.00  0.00    -0.001 C 
ATOM      5  C   UNL     1      -2.875  -4.329  29.717  0.00  0.00    -0.000 C 
ATOM      6  C   UNL     1      -3.878  -3.816  30.524  0.00  0.00    +0.003 C 
ATOM      7  C   UNL     1      -2.356  -7.595  31.614  0.00  0.00    +0.077 C 
ATOM      8  C   UNL     1      -2.841  -7.503  33.033  0.00  0.00    +0.210 C 
ATOM      9  O   UNL     1      -4.003  -6.667  32.883  0.00  0.00    -0.475 OA
ENDROOT
TORSDOF 0
