REMARK  Name = =
REMARK  1 active torsions:
REMARK  status: ('A' for Active; 'I' for Inactive)
REMARK    1  A    between atoms: C_5  and  N_10
REMARK                            x       y       z     vdW  Elec       q    Type
REMARK                         _______ _______ _______ _____ _____    ______ ____
ROOT
ATOM      1  C   UNL     1      -4.181  -4.565  31.582  0.00  0.00    +0.038 C 
ATOM      2  C   UNL     1      -3.922  -5.814  32.110  0.00  0.00    +0.135 C 
ATOM      3  C   UNL     1      -2.770  -6.453  31.671  0.00  0.00    +0.017 C 
ATOM      4  C   UNL     1      -1.945  -5.849  30.755  0.00  0.00    +0.014 C 
ATOM      5  C   UNL     1      -2.203  -4.607  30.230  0.00  0.00    +0.056 C 
ATOM      6  C   UNL     1      -3.349  -3.961  30.662  0.00  0.00    +0.018 C 
ATOM      7  C   UNL     1      -2.737  -7.771  32.396  0.00  0.00    +0.077 C 
ATOM      8  C   UNL     1      -3.589  -7.480  33.639  0.00  0.00    +0.210 C 
ATOM      9  O   UNL     1      -4.584  -6.637  33.036  0.00  0.00    -0.475 OA
ENDROOT
BRANCH   5  10
ATOM     10  N   UNL     1      -1.333  -3.986  29.273  0.00  0.00    -0.234 N 
ATOM     11  C   UNL     1      -1.070  -2.569  29.084  0.00  0.00    +0.185 C 
ATOM     12  C   UNL     1       0.411  -2.604  28.805  0.00  0.00    +0.250 C 
ATOM     13  O   UNL     1       1.303  -1.800  29.199  0.00  0.00    -0.273 OA
ATOM     14  N   UNL     1       0.574  -3.766  27.988  0.00  0.00    -0.238 N 
ATOM     15  C   UNL     1      -0.531  -4.634  28.287  0.00  0.00    +0.314 C 
ATOM     16  O   UNL     1      -0.766  -5.769  27.783  0.00  0.00    -0.252 OA
ATOM     17  H   UNL     1       1.301  -3.938  27.346  0.00  0.00    +0.159 HD
ENDBRANCH   5  10
TORSDOF 1
