REMARK  Name = =
REMARK  4 active torsions:
REMARK  status: ('A' for Active; 'I' for Inactive)
REMARK    1  A    between atoms: C_5  and  N_10
REMARK    2  A    between atoms: C_6  and  N_17
REMARK    3  A    between atoms: N_17  and  C_18
REMARK    4  A    between atoms: C_21  and  O_24
REMARK                            x       y       z     vdW  Elec       q    Type
REMARK                         _______ _______ _______ _____ _____    ______ ____
ROOT
ATOM      1  C   UNL     1      -2.272  -4.208  29.302  0.00  0.00    +0.052 C 
ATOM      2  C   UNL     1      -1.242  -4.140  28.385  0.00  0.00    +0.136 C 
ATOM      3  C   UNL     1      -0.181  -5.021  28.392  0.00  0.00    +0.017 C 
ATOM      4  C   UNL     1      -0.143  -6.007  29.348  0.00  0.00    +0.015 C 
ATOM      5  C   UNL     1      -1.161  -6.072  30.251  0.00  0.00    +0.069 C 
ATOM      6  C   UNL     1      -2.254  -5.190  30.268  0.00  0.00    +0.065 C 
ATOM      7  C   UNL     1       0.756  -4.683  27.280  0.00  0.00    +0.077 C 
ATOM      8  C   UNL     1       0.317  -3.297  26.913  0.00  0.00    +0.210 C 
ATOM      9  O   UNL     1      -1.036  -3.252  27.324  0.00  0.00    -0.475 OA
ENDROOT
BRANCH   5  10
ATOM     10  N   UNL     1      -1.128  -7.108  31.251  0.00  0.00    -0.233 N 
ATOM     11  C   UNL     1      -2.078  -8.222  31.367  0.00  0.00    +0.185 C 
ATOM     12  C   UNL     1      -2.028  -8.522  32.817  0.00  0.00    +0.250 C 
ATOM     13  O   UNL     1      -2.950  -9.041  33.493  0.00  0.00    -0.273 OA
ATOM     14  N   UNL     1      -0.746  -8.107  33.262  0.00  0.00    -0.238 N 
ATOM     15  C   UNL     1      -0.167  -7.219  32.290  0.00  0.00    +0.314 C 
ATOM     16  O   UNL     1       0.946  -6.686  32.387  0.00  0.00    -0.252 OA
ATOM     17  H   UNL     1      -0.319  -8.384  34.105  0.00  0.00    +0.159 HD
ENDBRANCH   5  10
BRANCH   6  18
ATOM     18  N   UNL     1      -3.228  -5.321  31.265  0.00  0.00    -0.311 N 
ATOM     19  H   UNL     1      -3.299  -6.199  31.704  0.00  0.00    +0.152 HD
BRANCH  18  20
ATOM     20  C   UNL     1      -4.116  -4.319  31.701  0.00  0.00    +0.049 C 
ATOM     21  C   UNL     1      -4.659  -3.328  30.915  0.00  0.00    +0.018 C 
ATOM     22  C   UNL     1      -5.498  -2.358  31.426  0.00  0.00    +0.038 C 
ATOM     23  C   UNL     1      -5.846  -2.327  32.766  0.00  0.00    +0.134 C 
ATOM     24  C   UNL     1      -5.316  -3.309  33.573  0.00  0.00    +0.038 C 
ATOM     25  C   UNL     1      -4.484  -4.267  33.058  0.00  0.00    +0.018 C 
BRANCH  23  26
ATOM     26  O   UNL     1      -6.693  -1.338  33.251  0.00  0.00    -0.506 OA
ATOM     27  H   UNL     1      -7.034  -0.687  32.670  0.00  0.00    +0.292 HD
ENDBRANCH  23  26
ENDBRANCH  18  20
ENDBRANCH   6  18
TORSDOF 4
