REMARK  Name = =
REMARK  5 active torsions:
REMARK  status: ('A' for Active; 'I' for Inactive)
REMARK    1  A    between atoms: C_5  and  N_10
REMARK    2  A    between atoms: C_6  and  N_17
REMARK    3  A    between atoms: N_17  and  C_18
REMARK    4  A    between atoms: C_20  and  N_24
REMARK    5  A    between atoms: C_21  and  O_28
REMARK                            x       y       z     vdW  Elec       q    Type
REMARK                         _______ _______ _______ _____ _____    ______ ____
ROOT
ATOM      1  C   UNL     1      -3.416  -5.716  33.128  0.00  0.00    +0.052 C 
ATOM      2  C   UNL     1      -3.102  -7.056  32.942  0.00  0.00    +0.136 C 
ATOM      3  C   UNL     1      -2.424  -7.415  31.805  0.00  0.00    +0.017 C 
ATOM      4  C   UNL     1      -2.081  -6.442  30.891  0.00  0.00    +0.015 C 
ATOM      5  C   UNL     1      -2.411  -5.096  31.104  0.00  0.00    +0.069 C 
ATOM      6  C   UNL     1      -3.092  -4.716  32.242  0.00  0.00    +0.065 C 
ATOM      7  C   UNL     1      -2.224  -8.873  31.851  0.00  0.00    +0.077 C 
ATOM      8  C   UNL     1      -2.523  -9.234  33.276  0.00  0.00    +0.210 C 
ATOM      9  O   UNL     1      -3.351  -8.196  33.733  0.00  0.00    -0.475 OA
ENDROOT
BRANCH   5  10
ATOM     10  N   UNL     1      -2.051  -4.101  30.173  0.00  0.00    -0.233 N 
ATOM     11  C   UNL     1      -0.745  -3.530  30.005  0.00  0.00    +0.185 C 
ATOM     12  C   UNL     1      -0.884  -2.477  28.966  0.00  0.00    +0.250 C 
ATOM     13  O   UNL     1       0.078  -1.734  28.625  0.00  0.00    -0.273 OA
ATOM     14  N   UNL     1      -2.203  -2.493  28.493  0.00  0.00    -0.238 N 
ATOM     15  C   UNL     1      -2.915  -3.494  29.240  0.00  0.00    +0.314 C 
ATOM     16  O   UNL     1      -4.134  -3.728  29.023  0.00  0.00    -0.252 OA
ATOM     17  H   UNL     1      -2.574  -1.924  27.780  0.00  0.00    +0.159 HD
ENDBRANCH   5  10
BRANCH   6  18
ATOM     18  N   UNL     1      -3.462  -3.374  32.431  0.00  0.00    -0.311 N 
ATOM     19  H   UNL     1      -2.723  -2.725  32.485  0.00  0.00    +0.152 HD
BRANCH  18  20
ATOM     20  C   UNL     1      -4.762  -2.843  32.553  0.00  0.00    +0.050 C 
ATOM     21  C   UNL     1      -5.240  -1.714  31.930  0.00  0.00    +0.033 C 
ATOM     22  C   UNL     1      -6.538  -1.245  32.144  0.00  0.00    +0.089 C 
ATOM     23  C   UNL     1      -7.394  -1.895  32.992  0.00  0.00    +0.147 C 
ATOM     24  C   UNL     1      -6.933  -3.043  33.634  0.00  0.00    +0.039 C 
ATOM     25  C   UNL     1      -5.641  -3.489  33.404  0.00  0.00    +0.018 C 
BRANCH  22  26
ATOM     26  N   UNL     1      -6.924  -0.069  31.435  0.00  0.00    -0.247 N 
ATOM     27  C   UNL     1      -8.023  -0.024  30.568  0.00  0.00    +0.307 C 
ATOM     28  O   UNL     1      -8.765  -1.031  30.341  0.00  0.00    -0.265 OA
ATOM     29  C   UNL     1      -6.137   1.154  31.609  0.00  0.00    +0.121 C 
ENDBRANCH  22  26
BRANCH  23  30
ATOM     30  O   UNL     1      -8.671  -1.410  33.187  0.00  0.00    -0.504 OA
ATOM     31  H   UNL     1      -8.951  -0.635  32.740  0.00  0.00    +0.292 HD
ENDBRANCH  23  30
ENDBRANCH  18  20
ENDBRANCH   6  18
TORSDOF 5
