REMARK  Name = =
REMARK  6 active torsions:
REMARK  status: ('A' for Active; 'I' for Inactive)
REMARK    1  A    between atoms: C_5  and  N_10
REMARK    2  A    between atoms: C_6  and  N_22
REMARK    3  A    between atoms: C_7  and  C_17
REMARK    4  A    between atoms: N_22  and  C_23
REMARK    5  A    between atoms: C_25  and  N_29
REMARK    6  A    between atoms: C_26  and  O_33
REMARK                            x       y       z     vdW  Elec       q    Type
REMARK                         _______ _______ _______ _____ _____    ______ ____
ROOT
ATOM      1  C   UNL     1      -3.017  -3.138  30.677  0.00  0.00    +0.052 C 
ATOM      2  C   UNL     1      -1.923  -3.029  29.875  0.00  0.00    +0.136 C 
ATOM      3  C   UNL     1      -1.149  -4.123  29.513  0.00  0.00    +0.022 C 
ATOM      4  C   UNL     1      -1.545  -5.339  30.010  0.00  0.00    +0.015 C 
ATOM      5  C   UNL     1      -2.666  -5.496  30.840  0.00  0.00    +0.069 C 
ATOM      6  C   UNL     1      -3.395  -4.390  31.166  0.00  0.00    +0.065 C 
ATOM      7  C   UNL     1      -0.081  -3.602  28.645  0.00  0.00    +0.107 C 
ATOM      8  C   UNL     1       0.005  -2.152  29.098  0.00  0.00    +0.215 C 
ATOM      9  O   UNL     1      -1.374  -1.874  29.282  0.00  0.00    -0.475 OA
ENDROOT
BRANCH   5  10
ATOM     10  N   UNL     1      -3.008  -6.776  31.308  0.00  0.00    -0.233 N 
ATOM     11  C   UNL     1      -3.756  -7.184  32.471  0.00  0.00    +0.185 C 
ATOM     12  C   UNL     1      -2.975  -8.388  32.918  0.00  0.00    +0.250 C 
ATOM     13  O   UNL     1      -2.727  -8.701  34.074  0.00  0.00    -0.273 OA
ATOM     14  N   UNL     1      -2.610  -9.046  31.724  0.00  0.00    -0.238 N 
ATOM     15  C   UNL     1      -2.631  -8.029  30.695  0.00  0.00    +0.314 C 
ATOM     16  O   UNL     1      -2.360  -8.244  29.506  0.00  0.00    -0.252 OA
ATOM     17  H   UNL     1      -2.387  -9.999  31.614  0.00  0.00    +0.159 HD
ENDBRANCH   5  10
BRANCH   7  18
ATOM     18  C   UNL     1       1.202  -4.291  28.738  0.00  0.00    +0.070 C 
ATOM     19  N   UNL     1       1.833  -4.895  27.797  0.00  0.00    -0.231 NA
ATOM     20  C   UNL     1       3.076  -5.463  28.261  0.00  0.00    +0.194 C 
ATOM     21  N   UNL     1       3.095  -5.097  29.659  0.00  0.00    -0.244 NA
ATOM     22  C   UNL     1       2.038  -4.438  29.920  0.00  0.00    +0.169 C 
ENDBRANCH   7  18
BRANCH   6  23
ATOM     23  N   UNL     1      -4.517  -4.426  32.029  0.00  0.00    -0.311 N 
ATOM     24  H   UNL     1      -4.702  -5.262  32.515  0.00  0.00    +0.152 HD
BRANCH  23  25
ATOM     25  C   UNL     1      -5.386  -3.332  32.233  0.00  0.00    +0.050 C 
ATOM     26  C   UNL     1      -6.777  -3.497  32.137  0.00  0.00    +0.033 C 
ATOM     27  C   UNL     1      -7.658  -2.452  32.284  0.00  0.00    +0.089 C 
ATOM     28  C   UNL     1      -7.148  -1.188  32.537  0.00  0.00    +0.147 C 
ATOM     29  C   UNL     1      -5.792  -0.979  32.640  0.00  0.00    +0.039 C 
ATOM     30  C   UNL     1      -4.938  -2.058  32.485  0.00  0.00    +0.018 C 
BRANCH  27  31
ATOM     31  N   UNL     1      -9.065  -2.598  32.193  0.00  0.00    -0.247 N 
ATOM     32  C   UNL     1      -9.854  -2.909  33.322  0.00  0.00    +0.307 C 
ATOM     33  O   UNL     1     -11.095  -3.033  33.226  0.00  0.00    -0.265 OA
ATOM     34  C   UNL     1      -9.716  -2.425  30.914  0.00  0.00    +0.121 C 
ENDBRANCH  27  31
BRANCH  28  35
ATOM     35  O   UNL     1      -8.029  -0.137  32.686  0.00  0.00    -0.504 OA
ATOM     36  H   UNL     1      -8.951  -0.285  32.615  0.00  0.00    +0.292 HD
ENDBRANCH  28  35
ENDBRANCH  23  25
ENDBRANCH   6  23
TORSDOF 6
