REMARK  Name = =
REMARK  7 active torsions:
REMARK  status: ('A' for Active; 'I' for Inactive)
REMARK    1  A    between atoms: C_1  and  C_11
REMARK    2  A    between atoms: C_5  and  N_17
REMARK    3  A    between atoms: C_6  and  N_29
REMARK    4  A    between atoms: C_7  and  C_24
REMARK    5  A    between atoms: N_29  and  C_30
REMARK    6  A    between atoms: C_32  and  N_36
REMARK    7  A    between atoms: C_33  and  O_40
REMARK                            x       y       z     vdW  Elec       q    Type
REMARK                         _______ _______ _______ _____ _____    ______ ____
ROOT
ATOM      1  C   UNL     1      -2.196  -5.219  31.153  0.00  0.00    +0.062 C 
ATOM      2  C   UNL     1      -3.449  -4.652  31.467  0.00  0.00    +0.137 C 
ATOM      3  C   UNL     1      -3.944  -3.545  30.809  0.00  0.00    +0.022 C 
ATOM      4  C   UNL     1      -3.218  -2.950  29.809  0.00  0.00    +0.015 C 
ATOM      5  C   UNL     1      -1.989  -3.467  29.467  0.00  0.00    +0.069 C 
ATOM      6  C   UNL     1      -1.521  -4.586  30.156  0.00  0.00    +0.066 C 
ATOM      7  C   UNL     1      -5.263  -3.216  31.377  0.00  0.00    +0.108 C 
ATOM      8  C   UNL     1      -5.152  -3.838  32.773  0.00  0.00    +0.215 C 
ATOM      9  O   UNL     1      -4.412  -5.009  32.421  0.00  0.00    -0.475 OA
ENDROOT
BRANCH   1  11
ATOM     10  C   UNL     1      -0.581  -6.685  32.413  0.00  0.00    +0.057 C 
ATOM     11  C   UNL     1      -1.755  -6.429  31.786  0.00  0.00    +0.056 C 
ATOM     12  N   UNL     1      -2.633  -7.489  31.830  0.00  0.00    -0.311 N 
ATOM     13  C   UNL     1      -2.349  -8.660  32.436  0.00  0.00    +0.065 C 
ATOM     14  C   UNL     1      -1.158  -8.903  33.065  0.00  0.00    +0.058 C 
ATOM     15  C   UNL     1      -0.247  -7.886  33.053  0.00  0.00    +0.198 C 
ATOM     16  O   UNL     1       0.872  -8.029  33.608  0.00  0.00    -0.286 OA
ATOM     17  H   UNL     1      -3.512  -7.387  31.398  0.00  0.00    +0.152 HD
ENDBRANCH   1  11
BRANCH   5  18
ATOM     18  N   UNL     1      -1.216  -2.886  28.449  0.00  0.00    -0.233 N 
ATOM     19  C   UNL     1      -1.547  -2.976  27.040  0.00  0.00    +0.185 C 
ATOM     20  C   UNL     1      -0.869  -1.805  26.409  0.00  0.00    +0.250 C 
ATOM     21  O   UNL     1      -1.249  -1.298  25.319  0.00  0.00    -0.273 OA
ATOM     22  N   UNL     1       0.189  -1.457  27.259  0.00  0.00    -0.238 N 
ATOM     23  C   UNL     1      -0.023  -2.114  28.499  0.00  0.00    +0.314 C 
ATOM     24  O   UNL     1       0.729  -2.036  29.510  0.00  0.00    -0.252 OA
ATOM     25  H   UNL     1       0.943  -0.864  27.036  0.00  0.00    +0.159 HD
ENDBRANCH   5  18
BRANCH   7  26
ATOM     26  C   UNL     1      -5.521  -1.772  31.454  0.00  0.00    +0.076 C 
ATOM     27  N   UNL     1      -6.634  -1.244  31.831  0.00  0.00    -0.194 NA
ATOM     28  C   UNL     1      -6.559   0.187  31.793  0.00  0.00    +0.185 C 
ATOM     29  N   UNL     1      -5.221   0.443  31.331  0.00  0.00    -0.224 NA
ATOM     30  C   UNL     1      -4.622  -0.688  31.135  0.00  0.00    +0.113 C 
ENDBRANCH   7  26
BRANCH   6  31
ATOM     31  N   UNL     1      -0.235  -4.986  29.757  0.00  0.00    -0.311 N 
ATOM     32  H   UNL     1       0.573  -4.566  30.130  0.00  0.00    +0.152 HD
BRANCH  31  33
ATOM     33  C   UNL     1      -0.152  -6.044  28.773  0.00  0.00    +0.050 C 
ATOM     34  C   UNL     1       0.949  -6.173  27.979  0.00  0.00    +0.033 C 
ATOM     35  C   UNL     1       1.038  -7.193  27.021  0.00  0.00    +0.089 C 
ATOM     36  C   UNL     1       0.002  -8.089  26.869  0.00  0.00    +0.147 C 
ATOM     37  C   UNL     1      -1.117  -7.964  27.670  0.00  0.00    +0.039 C 
ATOM     38  C   UNL     1      -1.178  -6.951  28.604  0.00  0.00    +0.018 C 
BRANCH  35  39
ATOM     39  N   UNL     1       2.171  -7.335  26.195  0.00  0.00    -0.247 N 
ATOM     40  C   UNL     1       3.242  -8.163  26.596  0.00  0.00    +0.307 C 
ATOM     41  O   UNL     1       3.167  -8.767  27.691  0.00  0.00    -0.265 OA
ATOM     42  C   UNL     1       2.277  -6.645  24.924  0.00  0.00    +0.121 C 
ENDBRANCH  35  39
BRANCH  36  43
ATOM     43  O   UNL     1       0.099  -9.104  25.911  0.00  0.00    -0.504 OA
ATOM     44  H   UNL     1       0.866  -9.173  25.377  0.00  0.00    +0.292 HD
ENDBRANCH  36  43
ENDBRANCH  31  33
ENDBRANCH   6  31
TORSDOF 7
