REMARK  Name = =
REMARK  1 active torsions:
REMARK  status: ('A' for Active; 'I' for Inactive)
REMARK    1  A    between atoms: C_1  and  C_10
REMARK                            x       y       z     vdW  Elec       q    Type
REMARK                         _______ _______ _______ _____ _____    ______ ____
ROOT
ATOM      1  C   UNL     1     -14.215 -42.801  26.675  0.00  0.00    +0.060 C 
ATOM      2  C   UNL     1     -14.045 -42.658  25.375  0.00  0.00    +0.044 C 
ATOM      3  C   UNL     1     -15.147 -42.268  24.506  0.00  0.00    +0.196 C 
ATOM      4  O   UNL     1     -15.001 -42.125  23.253  0.00  0.00    -0.287 OA
ATOM      5  C   UNL     1     -16.465 -42.030  25.082  0.00  0.00    +0.045 C 
ATOM      6  C   UNL     1     -16.688 -42.160  26.377  0.00  0.00    +0.045 C 
ATOM      7  C   UNL     1     -15.541 -42.557  27.217  0.00  0.00    +0.195 C 
ATOM      8  O   UNL     1     -15.772 -42.678  28.462  0.00  0.00    -0.287 OA
ENDROOT
BRANCH   1  10
ATOM      9  O   UNL     1     -11.926 -42.432  27.289  0.00  0.00    -0.444 OA
ATOM     10  C   UNL     1     -13.096 -43.200  27.565  0.00  0.00    +0.199 C 
ATOM     11  C   UNL     1     -12.747 -44.640  27.460  0.00  0.00    +0.075 C 
ATOM     12  C   UNL     1     -11.615 -44.954  28.350  0.00  0.00    -0.015 C 
ATOM     13  C   UNL     1     -10.711 -44.058  28.673  0.00  0.00    +0.077 C 
ATOM     14  C   UNL     1     -10.835 -42.691  28.125  0.00  0.00    +0.341 C 
ATOM     15  O   UNL     1      -9.972 -41.856  28.435  0.00  0.00    -0.245 OA
ENDBRANCH   1  10
TORSDOF 1
