MODEL 1
REMARK VINA RESULT:    -8.499      0.000      0.000
REMARK INTER + INTRA:         -12.293
REMARK INTER:                 -11.729
REMARK INTRA:                  -0.564
REMARK UNBOUND:                -0.564
REMARK  Name = =
REMARK  7 active torsions:
REMARK  status: ('A' for Active; 'I' for Inactive)
REMARK    1  A    between atoms: C_3  and  N_12
REMARK    2  A    between atoms: C_5  and  O_11
REMARK    3  A    between atoms: C_6  and  C_8
REMARK    4  A    between atoms: N_12  and  S_13
REMARK    5  A    between atoms: S_13  and  C_14
REMARK    6  A    between atoms: C_14  and  N_16
REMARK    7  A    between atoms: N_16  and  C_17
REMARK                            x       y       z     vdW  Elec       q    Type
REMARK                         _______ _______ _______ _____ _____    ______ ____
ROOT
ATOM      1 CL   UNL     1      54.298 156.125  24.772  0.00  0.00    -0.081 Cl
ATOM      2  C   UNL     1      53.532 154.897  25.765  0.00  0.00    +0.072 C 
ATOM      3  C   UNL     1      52.812 155.304  26.886  0.00  0.00    +0.068 C 
ATOM      4  C   UNL     1      52.230 154.350  27.634  0.00  0.00    +0.053 C 
ATOM      5  C   UNL     1      52.335 152.983  27.303  0.00  0.00    +0.139 C 
ATOM      6  C   UNL     1      53.033 152.575  26.210  0.00  0.00    +0.088 C 
ATOM      7  C   UNL     1      53.638 153.569  25.439  0.00  0.00    +0.020 C 
ENDROOT
BRANCH   6   8
ATOM      8  C   UNL     1      53.117 151.198  25.768  0.00  0.00    +0.246 C 
ATOM      9  O   UNL     1      53.969 150.914  24.839  0.00  0.00    -0.270 OA
ATOM     10  N   UNL     1      52.367 150.103  26.229  0.00  0.00    -0.325 N 
ATOM     11  H   UNL     1      51.694 150.231  26.937  0.00  0.00    +0.145 HD
ATOM     12  H   UNL     1      52.513 149.209  25.845  0.00  0.00    +0.145 HD
ENDBRANCH   6   8
BRANCH   5  13
ATOM     13  O   UNL     1      51.704 152.091  28.135  0.00  0.00    -0.505 OA
ATOM     14  H   UNL     1      51.188 151.398  27.773  0.00  0.00    +0.292 HD
ENDBRANCH   5  13
BRANCH   3  15
ATOM     15  N   UNL     1      52.720 156.700  27.151  0.00  0.00    -0.281 N 
ATOM     16  H   UNL     1      52.541 157.307  26.397  0.00  0.00    +0.160 HD
BRANCH  15  17
ATOM     17  S   UNL     1      52.910 157.400  28.756  0.00  0.00    -0.001 S 
BRANCH  17  18
ATOM     18  C   UNL     1      51.360 157.710  29.560  0.00  0.00    +0.127 C 
ATOM     19  S   UNL     1      50.348 156.481  29.894  0.00  0.00    -0.027 S 
BRANCH  18  20
ATOM     20  N   UNL     1      50.991 159.019  29.906  0.00  0.00    -0.300 N 
ATOM     21  H   UNL     1      51.450 159.777  29.478  0.00  0.00    +0.150 HD
BRANCH  20  22
ATOM     22  C   UNL     1      49.938 159.282  30.892  0.00  0.00    +0.191 C 
ATOM     23  O   UNL     1      50.424 159.956  31.989  0.00  0.00    -0.330 OA
ATOM     24  C   UNL     1      50.243 161.311  32.019  0.00  0.00    +0.208 C 
ATOM     25  C   UNL     1      48.889 161.767  31.624  0.00  0.00    +0.181 C 
ATOM     26  O   UNL     1      48.266 162.686  32.192  0.00  0.00    -0.293 OA
ATOM     27  C   UNL     1      48.271 161.086  30.494  0.00  0.00    +0.071 C 
ATOM     28  C   UNL     1      48.820 159.892  30.192  0.00  0.00    +0.059 C 
ENDBRANCH  20  22
ENDBRANCH  18  20
ENDBRANCH  17  18
ENDBRANCH  15  17
ENDBRANCH   3  15
TORSDOF 7
ENDMDL
