REMARK  Name = =
REMARK  7 active torsions:
REMARK  status: ('A' for Active; 'I' for Inactive)
REMARK    1  A    between atoms: C_3  and  N_12
REMARK    2  A    between atoms: C_5  and  O_11
REMARK    3  A    between atoms: C_6  and  C_8
REMARK    4  A    between atoms: N_12  and  S_13
REMARK    5  A    between atoms: S_13  and  C_14
REMARK    6  A    between atoms: C_14  and  N_16
REMARK    7  A    between atoms: N_16  and  C_17
REMARK                            x       y       z     vdW  Elec       q    Type
REMARK                         _______ _______ _______ _____ _____    ______ ____
ROOT
ATOM      1 CL   UNL     1      56.137 153.196  25.078  0.00  0.00    -0.081 Cl
ATOM      2  C   UNL     1      54.675 152.278  25.392  0.00  0.00    +0.072 C 
ATOM      3  C   UNL     1      53.554 152.957  25.867  0.00  0.00    +0.068 C 
ATOM      4  C   UNL     1      52.442 152.239  26.100  0.00  0.00    +0.053 C 
ATOM      5  C   UNL     1      52.398 150.847  25.873  0.00  0.00    +0.139 C 
ATOM      6  C   UNL     1      53.485 150.175  25.407  0.00  0.00    +0.088 C 
ATOM      7  C   UNL     1      54.638 150.925  25.170  0.00  0.00    +0.020 C 
ENDROOT
BRANCH   6   8
ATOM      8  C   UNL     1      53.487 148.765  25.078  0.00  0.00    +0.246 C 
ATOM      9  O   UNL     1      54.603 148.236  24.699  0.00  0.00    -0.270 OA
ATOM     10  N   UNL     1      52.400 147.875  25.114  0.00  0.00    -0.325 N 
ATOM     11  H   UNL     1      51.511 148.195  25.392  0.00  0.00    +0.145 HD
ATOM     12  H   UNL     1      52.527 146.932  24.862  0.00  0.00    +0.145 HD
ENDBRANCH   6   8
BRANCH   5  13
ATOM     13  O   UNL     1      51.213 150.209  26.145  0.00  0.00    -0.505 OA
ATOM     14  H   UNL     1      50.481 150.698  26.465  0.00  0.00    +0.292 HD
ENDBRANCH   5  13
BRANCH   3  15
ATOM     15  N   UNL     1      53.654 154.366  26.050  0.00  0.00    -0.281 N 
ATOM     16  H   UNL     1      54.033 154.905  25.319  0.00  0.00    +0.160 HD
BRANCH  15  17
ATOM     17  S   UNL     1      53.136 155.195  27.515  0.00  0.00    -0.001 S 
BRANCH  17  18
ATOM     18  C   UNL     1      53.374 156.950  27.434  0.00  0.00    +0.127 C 
ATOM     19  S   UNL     1      54.349 157.595  26.302  0.00  0.00    -0.027 S 
BRANCH  18  20
ATOM     20  N   UNL     1      52.730 157.795  28.350  0.00  0.00    -0.300 N 
ATOM     21  H   UNL     1      52.735 158.767  28.194  0.00  0.00    +0.150 HD
BRANCH  20  22
ATOM     22  C   UNL     1      52.049 157.263  29.535  0.00  0.00    +0.191 C 
ATOM     23  O   UNL     1      51.618 158.269  30.370  0.00  0.00    -0.330 OA
ATOM     24  C   UNL     1      50.307 158.643  30.271  0.00  0.00    +0.208 C 
ATOM     25  C   UNL     1      49.344 157.519  30.189  0.00  0.00    +0.181 C 
ATOM     26  O   UNL     1      48.244 157.494  30.777  0.00  0.00    -0.293 OA
ATOM     27  C   UNL     1      49.728 156.385  29.359  0.00  0.00    +0.071 C 
ATOM     28  C   UNL     1      51.045 156.316  29.080  0.00  0.00    +0.059 C 
ENDBRANCH  20  22
ENDBRANCH  18  20
ENDBRANCH  17  18
ENDBRANCH  15  17
ENDBRANCH   3  15
TORSDOF 7
