REMARK  Name = =
REMARK  1 active torsions:
REMARK  status: ('A' for Active; 'I' for Inactive)
REMARK    1  A    between atoms: C_1  and  N_6
REMARK                            x       y       z     vdW  Elec       q    Type
REMARK                         _______ _______ _______ _____ _____    ______ ____
ROOT
ATOM      1  C   UNL     1      52.867 154.786  27.188  0.00  0.00    +0.075 C 
ATOM      2  C   UNL     1      53.788 155.381  26.162  0.00  0.00    +0.085 C 
ATOM      3  N   UNL     1      53.528 154.518  25.010  0.00  0.00    -0.296 NA
ATOM      4  C   UNL     1      52.065 154.547  25.001  0.00  0.00    +0.070 C 
ATOM      5  C   UNL     1      51.785 154.042  26.412  0.00  0.00    +0.034 C 
ATOM      6  H   UNL     1      53.888 153.574  25.154  0.00  0.00    +0.123 HD
ENDROOT
BRANCH   1   7
ATOM      7  N   UNL     1      52.334 155.686  28.128  0.00  0.00    -0.273 NA
ATOM      8  C   UNL     1      52.822 157.007  28.150  0.00  0.00    +0.072 C 
ATOM      9  C   UNL     1      52.285 157.756  29.342  0.00  0.00    +0.017 C 
ATOM     10  C   UNL     1      50.784 157.494  29.366  0.00  0.00    +0.003 C 
ATOM     11  C   UNL     1      50.614 156.067  29.841  0.00  0.00    +0.017 C 
ATOM     12  C   UNL     1      51.699 155.164  29.273  0.00  0.00    +0.072 C 
ENDBRANCH   1   7
TORSDOF 1
