REMARK  Name = =
REMARK  5 active torsions:
REMARK  status: ('A' for Active; 'I' for Inactive)
REMARK    1  A    between atoms: C_2  and  N_7
REMARK    2  A    between atoms: P_13  and  O_14
REMARK    3  A    between atoms: P_13  and  C_16
REMARK    4  A    between atoms: P_13  and  O_20
REMARK    5  A    between atoms: O_14  and  O_21
REMARK                            x       y       z     vdW  Elec       q    Type
REMARK                         _______ _______ _______ _____ _____    ______ ____
ROOT
ATOM      1  S   UNL     1      52.398 153.610  25.850  0.00  0.00    -0.062 S 
ATOM      2  C   UNL     1      52.824 155.304  26.368  0.00  0.00    +0.122 C 
ATOM      3  C   UNL     1      53.710 155.293  27.583  0.00  0.00    +0.098 C 
ATOM      4  N   UNL     1      52.920 155.815  28.677  0.00  0.00    -0.295 NA
ATOM      5  C   UNL     1      51.777 156.503  28.129  0.00  0.00    +0.071 C 
ATOM      6  C   UNL     1      51.557 156.006  26.722  0.00  0.00    +0.048 C 
ATOM      7  H   UNL     1      53.481 156.465  29.227  0.00  0.00    +0.123 HD
ENDROOT
BRANCH   2   8
ATOM      8  N   UNL     1      53.446 155.975  25.251  0.00  0.00    -0.300 N 
ATOM      9  C   UNL     1      54.205 155.058  24.426  0.00  0.00    +0.057 C 
ATOM     10  C   UNL     1      55.248 155.630  23.569  0.00  0.00    -0.010 C 
ATOM     11  C   UNL     1      55.425 157.098  23.536  0.00  0.00    +0.029 C 
ATOM     12  C   UNL     1      54.454 157.902  24.329  0.00  0.00    +0.026 C 
ATOM     13  C   UNL     1      54.246 157.115  25.636  0.00  0.00    +0.092 C 
ENDBRANCH   2   8
TORSDOF 1
REMARK  Name = =
REMARK  5 active torsions:
REMARK  status: ('A' for Active; 'I' for Inactive)
REMARK    1  A    between atoms: C_2  and  N_7
REMARK    2  A    between atoms: P_13  and  O_14
REMARK    3  A    between atoms: P_13  and  C_16
REMARK    4  A    between atoms: P_13  and  O_20
REMARK    5  A    between atoms: O_14  and  O_21
REMARK                            x       y       z     vdW  Elec       q    Type
REMARK                         _______ _______ _______ _____ _____    ______ ____
ROOT
ATOM      1  P   UNL     1      52.565 152.200  27.371  0.00  0.00    +0.149 P 
ATOM      2  H   UNL     1      52.522 152.208  25.973  0.00  0.00    +0.115 HD
ENDROOT
BRANCH   1   3
ATOM      3  C   UNL     1      51.251 150.949  27.269  0.00  0.00    +0.118 C 
ATOM      4  C   UNL     1      50.948 150.444  28.674  0.00  0.00    +0.041 C 
ATOM      5  C   UNL     1      52.072 149.451  28.366  0.00  0.00    +0.071 C 
ATOM      6  N   UNL     1      51.696 149.606  26.963  0.00  0.00    -0.292 NA
ATOM      7  H   UNL     1      52.478 149.559  26.309  0.00  0.00    +0.124 HD
ENDBRANCH   1   3
BRANCH   1   8
ATOM      8  O   UNL     1      53.760 151.491  26.382  0.00  0.00    -0.354 OA
ATOM      9  H   UNL     1      54.537 152.070  26.348  0.00  0.00    +0.216 HD
ENDBRANCH   1   8
BRANCH   1  10
ATOM     10  O   UNL     1      51.930 152.883  28.522  0.00  0.00    -0.196 OA
BRANCH  10  11
ATOM     11  O   UNL     1      53.289 152.415  28.910  0.00  0.00    -0.245 OA
ATOM     12  H   UNL     1      53.464 152.659  29.832  0.00  0.00    +0.253 HD
ENDBRANCH  10  11
ENDBRANCH   1  10
TORSDOF 4
