REMARK  Name = =
REMARK  5 active torsions:
REMARK  status: ('A' for Active; 'I' for Inactive)
REMARK    1  A    between atoms: P_1  and  O_2
REMARK    2  A    between atoms: P_1  and  O_10
REMARK    3  A    between atoms: O_2  and  O_11
REMARK    4  A    between atoms: C_6  and  N_8
REMARK    5  A    between atoms: C_13  and  N_18
REMARK                            x       y       z     vdW  Elec       q    Type
REMARK                         _______ _______ _______ _____ _____    ______ ____
ROOT
ATOM      1  P   UNL     1      52.580 154.725  26.120  0.00  0.00    +0.192 P 
ATOM      2  H   UNL     1      53.397 154.832  24.977  0.00  0.00    +0.121 HD
ENDROOT
BRANCH   1   3
ATOM      3  O   UNL     1      52.328 155.815  24.814  0.00  0.00    -0.349 OA
ATOM      4  H   UNL     1      51.535 156.347  24.985  0.00  0.00    +0.217 HD
ENDBRANCH   1   3
BRANCH   1   5
ATOM      5  O   UNL     1      52.193 153.652  27.082  0.00  0.00    -0.190 OA
BRANCH   5   6
ATOM      6  O   UNL     1      51.140 153.880  26.044  0.00  0.00    -0.245 OA
ATOM      7  H   UNL     1      50.397 153.276  26.199  0.00  0.00    +0.253 HD
ENDBRANCH   5   6
ENDBRANCH   1   5
TORSDOF 3
REMARK  Name = =
REMARK  5 active torsions:
REMARK  status: ('A' for Active; 'I' for Inactive)
REMARK    1  A    between atoms: P_1  and  O_2
REMARK    2  A    between atoms: P_1  and  O_10
REMARK    3  A    between atoms: O_2  and  O_11
REMARK    4  A    between atoms: C_6  and  N_8
REMARK    5  A    between atoms: C_13  and  N_18
REMARK                            x       y       z     vdW  Elec       q    Type
REMARK                         _______ _______ _______ _____ _____    ______ ____
ROOT
ATOM      1  C   UNL     1      52.770 155.939  27.430  0.00  0.00    +0.073 C 
ATOM      2  C   UNL     1      51.496 156.054  28.231  0.00  0.00    +0.058 C 
ATOM      3  C   UNL     1      52.025 157.485  28.422  0.00  0.00    +0.161 C 
ATOM      4  N   UNL     1      52.560 157.337  27.055  0.00  0.00    -0.279 NA
ATOM      5  H   UNL     1      51.885 157.489  26.305  0.00  0.00    +0.125 HD
ENDROOT
BRANCH   3   6
ATOM      6  N   UNL     1      53.116 157.487  29.341  0.00  0.00    -0.253 NA
ATOM      7  C   UNL     1      53.908 158.449  29.545  0.00  0.00    +0.115 C 
ENDBRANCH   3   6
TORSDOF 1
REMARK  Name = =
REMARK  5 active torsions:
REMARK  status: ('A' for Active; 'I' for Inactive)
REMARK    1  A    between atoms: P_1  and  O_2
REMARK    2  A    between atoms: P_1  and  O_10
REMARK    3  A    between atoms: O_2  and  O_11
REMARK    4  A    between atoms: C_6  and  N_8
REMARK    5  A    between atoms: C_13  and  N_18
REMARK                            x       y       z     vdW  Elec       q    Type
REMARK                         _______ _______ _______ _____ _____    ______ ____
ROOT
ATOM      1  S   UNL     1      54.366 153.942  25.513  0.00  0.00    -0.066 S 
ATOM      2  C   UNL     1      54.709 152.226  25.756  0.00  0.00    +0.110 C 
ATOM      3  C   UNL     1      55.312 151.871  27.106  0.00  0.00    +0.095 C 
ATOM      4  N   UNL     1      56.535 152.649  27.127  0.00  0.00    -0.296 NA
ATOM      5  C   UNL     1      56.970 152.813  25.755  0.00  0.00    +0.071 C 
ATOM      6  C   UNL     1      56.020 151.962  24.920  0.00  0.00    +0.044 C 
ATOM      7  H   UNL     1      57.251 152.158  27.663  0.00  0.00    +0.123 HD
ENDROOT
BRANCH   2   8
ATOM      8  N   UNL     1      53.759 151.273  25.402  0.00  0.00    -0.265 NA
ATOM      9  C   UNL     1      52.803 150.809  26.295  0.00  0.00    +0.073 C 
ATOM     10  C   UNL     1      52.178 149.478  25.922  0.00  0.00    +0.017 C 
ATOM     11  C   UNL     1      53.079 148.546  25.196  0.00  0.00    +0.003 C 
ATOM     12  C   UNL     1      54.151 149.170  24.371  0.00  0.00    +0.017 C 
ATOM     13  C   UNL     1      53.798 150.630  24.155  0.00  0.00    +0.073 C 
ENDBRANCH   2   8
TORSDOF 1
