REMARK  Name = =
REMARK  5 active torsions:
REMARK  status: ('A' for Active; 'I' for Inactive)
REMARK    1  A    between atoms: O_2  and  S_12
REMARK    2  A    between atoms: C_3  and  N_7
REMARK    3  A    between atoms: C_5  and  N_8
REMARK    4  A    between atoms: S_12  and  C_13
REMARK    5  A    between atoms: C_13  and  N_18
REMARK                            x       y       z     vdW  Elec       q    Type
REMARK                         _______ _______ _______ _____ _____    ______ ____
ROOT
ATOM      1  P   UNL     1      52.498 154.814  26.989  0.00  0.00    +0.000 P 
ENDROOT
TORSDOF 0
REMARK  Name = =
REMARK  5 active torsions:
REMARK  status: ('A' for Active; 'I' for Inactive)
REMARK    1  A    between atoms: O_2  and  S_12
REMARK    2  A    between atoms: C_3  and  N_7
REMARK    3  A    between atoms: C_5  and  N_8
REMARK    4  A    between atoms: S_12  and  C_13
REMARK    5  A    between atoms: C_13  and  N_18
REMARK                            x       y       z     vdW  Elec       q    Type
REMARK                         _______ _______ _______ _____ _____    ______ ____
ROOT
ATOM      1  C   UNL     1      54.344 153.496  24.700  0.00  0.00    +0.126 C 
ATOM      2  C   UNL     1      54.321 153.331  23.166  0.00  0.00    +0.096 C 
ATOM      3  N   UNL     1      54.761 154.670  22.774  0.00  0.00    -0.296 NA
ATOM      4  C   UNL     1      55.742 155.090  23.725  0.00  0.00    +0.071 C 
ATOM      5  C   UNL     1      55.782 153.991  24.801  0.00  0.00    +0.046 C 
ATOM      6  H   UNL     1      53.970 155.314  22.781  0.00  0.00    +0.123 HD
ENDROOT
BRANCH   1   7
ATOM      7  N   UNL     1      54.105 152.308  25.390  0.00  0.00    -0.264 NA
ATOM      8  C   UNL     1      52.813 151.759  25.400  0.00  0.00    +0.073 C 
ATOM      9  C   UNL     1      52.739 150.316  24.959  0.00  0.00    +0.017 C 
ATOM     10  C   UNL     1      54.025 149.823  24.357  0.00  0.00    +0.003 C 
ATOM     11  C   UNL     1      55.250 150.151  25.162  0.00  0.00    +0.017 C 
ATOM     12  C   UNL     1      55.164 151.501  25.833  0.00  0.00    +0.073 C 
ENDBRANCH   1   7
BRANCH   1  13
ATOM     13  S   UNL     1      53.191 154.827  25.056  0.00  0.00    +0.014 S 
BRANCH  13  14
ATOM     14  O   UNL     1      52.180 155.556  25.718  0.00  0.00    -0.327 OA
ATOM     15  H   UNL     1      52.021 156.389  25.248  0.00  0.00    +0.227 HD
ENDBRANCH  13  14
ENDBRANCH   1  13
TORSDOF 3
REMARK  Name = =
REMARK  5 active torsions:
REMARK  status: ('A' for Active; 'I' for Inactive)
REMARK    1  A    between atoms: O_2  and  S_12
REMARK    2  A    between atoms: C_3  and  N_7
REMARK    3  A    between atoms: C_5  and  N_8
REMARK    4  A    between atoms: S_12  and  C_13
REMARK    5  A    between atoms: C_13  and  N_18
REMARK                            x       y       z     vdW  Elec       q    Type
REMARK                         _______ _______ _______ _____ _____    ______ ____
ROOT
ATOM      1  C   UNL     1      52.406 156.445  27.743  0.00  0.00    +0.113 C 
ATOM      2  C   UNL     1      52.225 156.301  29.253  0.00  0.00    +0.073 C 
ATOM      3  C   UNL     1      51.323 157.491  29.088  0.00  0.00    +0.163 C 
ATOM      4  N   UNL     1      51.109 157.083  27.712  0.00  0.00    -0.268 NA
ATOM      5  H   UNL     1      50.326 156.443  27.578  0.00  0.00    +0.126 HD
ENDROOT
BRANCH   1   6
ATOM      6  N   UNL     1      53.453 157.370  27.461  0.00  0.00    -0.310 NA
ATOM      7  H   UNL     1      54.351 156.887  27.491  0.00  0.00    +0.120 HD
ATOM      8  H   UNL     1      53.444 158.116  28.157  0.00  0.00    +0.120 HD
ENDBRANCH   1   6
BRANCH   3   9
ATOM      9  N   UNL     1      50.181 157.518  29.921  0.00  0.00    -0.253 NA
ATOM     10  C   UNL     1      49.298 156.607  29.989  0.00  0.00    +0.115 C 
ENDBRANCH   3   9
TORSDOF 2
REMARK  Name = =
REMARK  5 active torsions:
REMARK  status: ('A' for Active; 'I' for Inactive)
REMARK    1  A    between atoms: O_2  and  S_12
REMARK    2  A    between atoms: C_3  and  N_7
REMARK    3  A    between atoms: C_5  and  N_8
REMARK    4  A    between atoms: S_12  and  C_13
REMARK    5  A    between atoms: C_13  and  N_18
REMARK                            x       y       z     vdW  Elec       q    Type
REMARK                         _______ _______ _______ _____ _____    ______ ____
ROOT
ATOM      1  O   HOH     1      51.593 153.808  28.025  0.00  0.00    -0.253 OA
ATOM      2  H   HOH     0      52.563 153.808  28.025  0.00  0.00    +0.253 HD
ENDROOT
TORSDOF 0
REMARK  Name = =
REMARK  5 active torsions:
REMARK  status: ('A' for Active; 'I' for Inactive)
REMARK    1  A    between atoms: O_2  and  S_12
REMARK    2  A    between atoms: C_3  and  N_7
REMARK    3  A    between atoms: C_5  and  N_8
REMARK    4  A    between atoms: S_12  and  C_13
REMARK    5  A    between atoms: C_13  and  N_18
REMARK                            x       y       z     vdW  Elec       q    Type
REMARK                         _______ _______ _______ _____ _____    ______ ____
ROOT
ATOM      1  O   HOH     1      54.043 154.659  27.660  0.00  0.00    -0.253 OA
ATOM      2  H   HOH     0      55.013 154.659  27.660  0.00  0.00    +0.253 HD
ENDROOT
TORSDOF 0
