REMARK  Name = =
REMARK  8 active torsions:
REMARK  status: ('A' for Active; 'I' for Inactive)
REMARK    1  A    between atoms: O_2  and  S_15
REMARK    2  A    between atoms: C_3  and  N_7
REMARK    3  A    between atoms: C_5  and  N_11
REMARK    4  A    between atoms: N_7  and  O_8
REMARK    5  A    between atoms: O_8  and  N_9
REMARK    6  A    between atoms: O_13  and  O_14
REMARK    7  A    between atoms: S_15  and  C_16
REMARK    8  A    between atoms: C_16  and  N_21
REMARK                            x       y       z     vdW  Elec       q    Type
REMARK                         _______ _______ _______ _____ _____    ______ ____
ROOT
ATOM      1  P   UNL     1      51.998 154.966  28.160  0.00  0.00    +0.000 P 
ENDROOT
TORSDOF 0
REMARK  Name = =
REMARK  8 active torsions:
REMARK  status: ('A' for Active; 'I' for Inactive)
REMARK    1  A    between atoms: O_2  and  S_15
REMARK    2  A    between atoms: C_3  and  N_7
REMARK    3  A    between atoms: C_5  and  N_11
REMARK    4  A    between atoms: N_7  and  O_8
REMARK    5  A    between atoms: O_8  and  N_9
REMARK    6  A    between atoms: O_13  and  O_14
REMARK    7  A    between atoms: S_15  and  C_16
REMARK    8  A    between atoms: C_16  and  N_21
REMARK                            x       y       z     vdW  Elec       q    Type
REMARK                         _______ _______ _______ _____ _____    ______ ____
ROOT
ATOM      1  C   UNL     1      52.972 153.073  25.744  0.00  0.00    +0.138 C 
ATOM      2  C   UNL     1      52.534 154.149  24.774  0.00  0.00    +0.100 C 
ATOM      3  N   UNL     1      53.569 155.134  24.738  0.00  0.00    -0.295 NA
ATOM      4  C   UNL     1      54.712 154.675  25.466  0.00  0.00    +0.071 C 
ATOM      5  C   UNL     1      54.416 153.299  26.006  0.00  0.00    +0.049 C 
ATOM      6  H   UNL     1      53.227 155.998  25.158  0.00  0.00    +0.123 HD
ENDROOT
BRANCH   1   7
ATOM      7  N   UNL     1      52.751 151.758  25.106  0.00  0.00    -0.299 N 
ATOM      8  C   UNL     1      53.557 151.563  23.985  0.00  0.00    +0.057 C 
ATOM      9  C   UNL     1      54.492 150.418  23.959  0.00  0.00    -0.010 C 
ATOM     10  C   UNL     1      54.325 149.407  25.034  0.00  0.00    +0.029 C 
ATOM     11  C   UNL     1      52.835 149.388  25.409  0.00  0.00    +0.026 C 
ATOM     12  C   UNL     1      52.608 150.736  26.054  0.00  0.00    +0.092 C 
ENDBRANCH   1   7
BRANCH   1  13
ATOM     13  S   UNL     1      52.035 153.171  27.281  0.00  0.00    +0.018 S 
BRANCH  13  14
ATOM     14  O   UNL     1      50.901 154.120  27.639  0.00  0.00    -0.327 OA
ATOM     15  H   UNL     1      50.594 153.932  28.540  0.00  0.00    +0.227 HD
ENDBRANCH  13  14
ENDBRANCH   1  13
TORSDOF 3
REMARK  Name = =
REMARK  8 active torsions:
REMARK  status: ('A' for Active; 'I' for Inactive)
REMARK    1  A    between atoms: O_2  and  S_15
REMARK    2  A    between atoms: C_3  and  N_7
REMARK    3  A    between atoms: C_5  and  N_11
REMARK    4  A    between atoms: N_7  and  O_8
REMARK    5  A    between atoms: O_8  and  N_9
REMARK    6  A    between atoms: O_13  and  O_14
REMARK    7  A    between atoms: S_15  and  C_16
REMARK    8  A    between atoms: C_16  and  N_21
REMARK                            x       y       z     vdW  Elec       q    Type
REMARK                         _______ _______ _______ _____ _____    ______ ____
ROOT
ATOM      1  C   UNL     1      51.843 156.680  28.657  0.00  0.00    +0.142 C 
ATOM      2  C   UNL     1      52.663 156.855  29.912  0.00  0.00    +0.075 C 
ATOM      3  C   UNL     1      53.159 158.098  29.159  0.00  0.00    +0.163 C 
ATOM      4  N   UNL     1      52.703 157.514  27.887  0.00  0.00    -0.266 NA
ATOM      5  H   UNL     1      52.222 158.166  27.267  0.00  0.00    +0.126 HD
ENDROOT
BRANCH   1   6
ATOM      6  N   UNL     1      50.486 157.099  28.813  0.00  0.00    -0.153 NA
ATOM      7  H   UNL     1      49.938 156.704  28.049  0.00  0.00    +0.158 HD
BRANCH   6   8
ATOM      8  O   UNL     1      49.923 156.714  29.985  0.00  0.00    -0.159 OA
BRANCH   8   9
ATOM      9  N   UNL     1      48.973 157.566  30.543  0.00  0.00    +0.119 NA
ATOM     10  O   UNL     1      49.341 158.757  30.760  0.00  0.00    -0.068 OA
ENDBRANCH   8   9
ENDBRANCH   6   8
ENDBRANCH   1   6
BRANCH   3  11
ATOM     11  N   UNL     1      54.574 158.245  29.122  0.00  0.00    -0.253 NA
ATOM     12  C   UNL     1      55.159 159.358  29.232  0.00  0.00    +0.115 C 
ENDBRANCH   3  11
TORSDOF 4
REMARK  Name = =
REMARK  8 active torsions:
REMARK  status: ('A' for Active; 'I' for Inactive)
REMARK    1  A    between atoms: O_2  and  S_15
REMARK    2  A    between atoms: C_3  and  N_7
REMARK    3  A    between atoms: C_5  and  N_11
REMARK    4  A    between atoms: N_7  and  O_8
REMARK    5  A    between atoms: O_8  and  N_9
REMARK    6  A    between atoms: O_13  and  O_14
REMARK    7  A    between atoms: S_15  and  C_16
REMARK    8  A    between atoms: C_16  and  N_21
REMARK                            x       y       z     vdW  Elec       q    Type
REMARK                         _______ _______ _______ _____ _____    ______ ____
ROOT
ATOM      1  O   UNL     1      53.565 154.699  28.734  0.00  0.00    -0.253 OA
ATOM      2  H   UNL     1      53.541 154.418  27.806  0.00  0.00    +0.253 HD
ENDROOT
BRANCH   1   3
ATOM      3  O   UNL     1      52.395 154.010  29.520  0.00  0.00    -0.253 OA
ATOM      4  H   UNL     1      52.419 154.291  30.448  0.00  0.00    +0.253 HD
ENDBRANCH   1   3
TORSDOF 1
