REMARK  Name = =
REMARK  3 active torsions:
REMARK  status: ('A' for Active; 'I' for Inactive)
REMARK    1  A    between atoms: C_1  and  C_8
REMARK    2  A    between atoms: C_2  and  O_12
REMARK    3  A    between atoms: C_4  and  N_11
REMARK                            x       y       z     vdW  Elec       q    Type
REMARK                         _______ _______ _______ _____ _____    ______ ____
ROOT
ATOM      1  C   UNL     1      51.875 156.756  28.848  0.00  0.00    +0.088 C 
ATOM      2  C   UNL     1      50.645 156.246  29.208  0.00  0.00    +0.139 C 
ATOM      3  C   UNL     1      49.750 156.998  29.980  0.00  0.00    +0.052 C 
ATOM      4  C   UNL     1      50.072 158.260  30.400  0.00  0.00    +0.055 C 
ATOM      5  C   UNL     1      51.299 158.769  30.042  0.00  0.00    +0.071 C 
ATOM      6  C   UNL     1      52.201 158.028  29.270  0.00  0.00    +0.020 C 
ATOM      7 CL   UNL     1      51.699 160.383  30.583  0.00  0.00    -0.081 Cl
ENDROOT
BRANCH   1   8
ATOM      8  C   UNL     1      52.777 155.944  28.044  0.00  0.00    +0.246 C 
ATOM      9  O   UNL     1      53.156 156.424  26.949  0.00  0.00    -0.270 OA
ATOM     10  N   UNL     1      53.223 154.676  28.443  0.00  0.00    -0.325 N 
ATOM     11  H   UNL     1      52.926 154.298  29.302  0.00  0.00    +0.145 HD
ATOM     12  H   UNL     1      53.833 154.164  27.864  0.00  0.00    +0.145 HD
ENDBRANCH   1   8
BRANCH   4  13
ATOM     13  N   UNL     1      49.161 159.030  31.189  0.00  0.00    -0.356 N 
ATOM     14  H   UNL     1      48.286 158.654  31.438  0.00  0.00    +0.142 HD
ATOM     15  H   UNL     1      49.409 159.936  31.483  0.00  0.00    +0.142 HD
ENDBRANCH   4  13
BRANCH   2  16
ATOM     16  O   UNL     1      50.332 154.964  28.775  0.00  0.00    -0.505 OA
ATOM     17  H   UNL     1      50.947 154.480  28.260  0.00  0.00    +0.292 HD
ENDBRANCH   2  16
TORSDOF 3
