REMARK  Name = =
REMARK  3 active torsions:
REMARK  status: ('A' for Active; 'I' for Inactive)
REMARK    1  A    between atoms: C_1  and  C_8
REMARK    2  A    between atoms: C_2  and  O_13
REMARK    3  A    between atoms: C_3  and  N_10
REMARK                            x       y       z     vdW  Elec       q    Type
REMARK                         _______ _______ _______ _____ _____    ______ ____
ROOT
ATOM      1  C   UNL     1      51.300 157.696  29.468  0.00  0.00    +0.088 C 
ATOM      2  C   UNL     1      50.912 156.384  29.266  0.00  0.00    +0.151 C 
ATOM      3  C   UNL     1      51.655 155.537  28.431  0.00  0.00    +0.085 C 
ATOM      4  C   UNL     1      52.763 156.020  27.819  0.00  0.00    +0.018 C 
ATOM      5  C   UNL     1      53.155 157.346  28.021  0.00  0.00    +0.002 C 
ATOM      6  C   UNL     1      52.430 158.156  28.832  0.00  0.00    +0.008 C 
ENDROOT
BRANCH   1   8
ATOM      7  N   UNL     1      49.129 158.397  30.495  0.00  0.00    -0.325 N 
ATOM      8  C   UNL     1      50.519 158.584  30.346  0.00  0.00    +0.246 C 
ATOM      9  O   UNL     1      51.125 159.496  30.946  0.00  0.00    -0.270 OA
ATOM     10  H   UNL     1      48.675 157.670  30.010  0.00  0.00    +0.145 HD
ATOM     11  H   UNL     1      48.612 158.994  31.084  0.00  0.00    +0.145 HD
ENDBRANCH   1   8
BRANCH   3  12
ATOM     12  N   UNL     1      51.216 154.217  28.263  0.00  0.00    -0.274 N 
ATOM     13  C   UNL     1      52.017 153.067  28.387  0.00  0.00    +0.304 C 
ATOM     14  O   UNL     1      53.226 153.101  28.664  0.00  0.00    -0.265 OA
ATOM     15  H   UNL     1      50.267 154.083  28.039  0.00  0.00    +0.155 HD
ENDBRANCH   3  12
BRANCH   2  16
ATOM     16  O   UNL     1      49.782 155.973  29.921  0.00  0.00    -0.504 OA
ATOM     17  H   UNL     1      49.315 156.572  30.470  0.00  0.00    +0.292 HD
ENDBRANCH   2  16
TORSDOF 3
