REMARK  Name = =
REMARK  5 active torsions:
REMARK  status: ('A' for Active; 'I' for Inactive)
REMARK    1  A    between atoms: C_4  and  O_12
REMARK    2  A    between atoms: C_5  and  O_11
REMARK    3  A    between atoms: C_7  and  C_13
REMARK    4  A    between atoms: C_14  and  C_15
REMARK    5  A    between atoms: C_15  and  O_17
REMARK                            x       y       z     vdW  Elec       q    Type
REMARK                         _______ _______ _______ _____ _____    ______ ____
ROOT
ATOM      1  C   UNL     1      50.159 160.265  30.959  0.00  0.00    -0.005 C 
ATOM      2  C   UNL     1      50.531 159.109  30.311  0.00  0.00    -0.016 C 
ATOM      3  C   UNL     1      49.552 158.259  29.851  0.00  0.00    +0.036 C 
ATOM      4  C   UNL     1      48.196 158.518  30.009  0.00  0.00    +0.167 C 
ATOM      5  C   UNL     1      47.875 159.687  30.663  0.00  0.00    +0.167 C 
ATOM      6  C   UNL     1      48.836 160.555  31.135  0.00  0.00    +0.037 C 
ATOM      7  C   UNL     1      51.932 158.759  30.102  0.00  0.00    +0.062 C 
ATOM      8  C   UNL     1      52.893 159.898  30.244  0.00  0.00    +0.098 C 
ATOM      9  N   UNL     1      52.262 161.179  30.415  0.00  0.00    -0.213 NA
ATOM     10  C   UNL     1      51.252 161.175  31.453  0.00  0.00    +0.115 C 
ENDROOT
BRANCH   5  11
ATOM     11  O   UNL     1      46.532 159.986  30.844  0.00  0.00    -0.503 OA
ATOM     12  H   UNL     1      45.874 159.400  30.525  0.00  0.00    +0.292 HD
ENDBRANCH   5  11
BRANCH   4  13
ATOM     13  O   UNL     1      47.236 157.629  29.526  0.00  0.00    -0.503 OA
ATOM     14  H   UNL     1      47.502 156.845  29.087  0.00  0.00    +0.292 HD
ENDBRANCH   4  13
BRANCH   7  15
ATOM     15  C   UNL     1      52.149 158.094  28.791  0.00  0.00    -0.014 C 
ATOM     16  C   UNL     1      52.711 156.902  28.721  0.00  0.00    +0.077 C 
BRANCH  16  17
ATOM     17  C   UNL     1      52.936 156.230  27.466  0.00  0.00    +0.338 C 
ATOM     18  O   UNL     1      53.132 156.938  26.436  0.00  0.00    -0.245 OA
BRANCH  17  19
ATOM     19  O   UNL     1      52.948 154.853  27.327  0.00  0.00    -0.477 OA
ATOM     20  H   UNL     1      52.806 154.305  28.074  0.00  0.00    +0.295 HD
ENDBRANCH  17  19
ENDBRANCH  16  17
ENDBRANCH   7  15
TORSDOF 5
