REMARK  Name = =
REMARK  6 active torsions:
REMARK  status: ('A' for Active; 'I' for Inactive)
REMARK    1  A    between atoms: C_1  and  C_14
REMARK    2  A    between atoms: C_2  and  O_19
REMARK    3  A    between atoms: C_3  and  N_16
REMARK    4  A    between atoms: C_4  and  O_20
REMARK    5  A    between atoms: O_20  and  C_21
REMARK    6  A    between atoms: C_24  and  C_27
REMARK                            x       y       z     vdW  Elec       q    Type
REMARK                         _______ _______ _______ _____ _____    ______ ____
ROOT
ATOM      1  C   UNL     1      51.501 156.221  28.624  0.00  0.00    +0.089 C 
ATOM      2  C   UNL     1      50.245 156.471  29.102  0.00  0.00    +0.154 C 
ATOM      3  C   UNL     1      49.942 157.690  29.658  0.00  0.00    +0.120 C 
ATOM      4  C   UNL     1      50.911 158.676  29.737  0.00  0.00    +0.162 C 
ATOM      5  C   UNL     1      52.171 158.415  29.252  0.00  0.00    +0.039 C 
ATOM      6  C   UNL     1      52.458 157.189  28.699  0.00  0.00    +0.011 C 
ENDROOT
BRANCH   1  14
ATOM      7  N   UNL     1      51.337 151.262  28.571  0.00  0.00    -0.212 NA
ATOM      8  C   UNL     1      51.692 152.431  28.007  0.00  0.00    +0.223 C 
ATOM      9  N   UNL     1      52.333 152.398  26.834  0.00  0.00    -0.212 NA
ATOM     10  C   UNL     1      52.651 151.272  26.175  0.00  0.00    +0.103 C 
ATOM     11  C   UNL     1      52.292 150.070  26.743  0.00  0.00    +0.041 C 
ATOM     12  C   UNL     1      51.629 150.089  27.955  0.00  0.00    +0.103 C 
ATOM     13  N   UNL     1      51.389 153.686  28.649  0.00  0.00    -0.250 N 
ATOM     14  C   UNL     1      51.772 154.894  28.037  0.00  0.00    +0.255 C 
ATOM     15  O   UNL     1      52.375 154.813  26.928  0.00  0.00    -0.270 OA
ATOM     16  H   UNL     1      50.916 153.698  29.512  0.00  0.00    +0.158 HD
ENDBRANCH   1  14
BRANCH   3  17
ATOM     17  N   UNL     1      48.619 157.924  30.151  0.00  0.00    -0.272 N 
ATOM     18  C   UNL     1      48.374 158.470  31.434  0.00  0.00    +0.304 C 
ATOM     19  O   UNL     1      49.360 158.753  32.152  0.00  0.00    -0.265 OA
ATOM     20  H   UNL     1      47.852 157.697  29.577  0.00  0.00    +0.155 HD
ENDBRANCH   3  17
BRANCH   2  21
ATOM     21  O   UNL     1      49.266 155.463  29.019  0.00  0.00    -0.504 OA
ATOM     22  H   UNL     1      49.479 154.634  28.639  0.00  0.00    +0.292 HD
ENDBRANCH   2  21
BRANCH   4  23
ATOM     23  O   UNL     1      50.590 159.902  30.300  0.00  0.00    -0.452 OA
BRANCH  23  24
ATOM     24  C   UNL     1      51.618 160.714  30.769  0.00  0.00    +0.145 C 
ATOM     25  C   UNL     1      52.923 160.493  30.376  0.00  0.00    +0.038 C 
ATOM     26  C   UNL     1      53.947 161.281  30.827  0.00  0.00    +0.006 C 
ATOM     27  C   UNL     1      53.674 162.314  31.687  0.00  0.00    +0.042 C 
ATOM     28  C   UNL     1      52.378 162.569  32.105  0.00  0.00    +0.006 C 
ATOM     29  C   UNL     1      51.361 161.757  31.635  0.00  0.00    +0.038 C 
BRANCH  27  30
ATOM     30  C   UNL     1      54.746 163.164  32.179  0.00  0.00    +0.234 C 
ATOM     31  O   UNL     1      55.824 162.675  32.603  0.00  0.00    -0.283 OA
ENDBRANCH  27  30
ENDBRANCH  23  24
ENDBRANCH   4  23
TORSDOF 6
