REMARK  Name = =
REMARK  9 active torsions:
REMARK  status: ('A' for Active; 'I' for Inactive)
REMARK    1  A    between atoms: C_1  and  C_9
REMARK    2  A    between atoms: C_2  and  C_15
REMARK    3  A    between atoms: C_6  and  O_14
REMARK    4  A    between atoms: C_7  and  O_13
REMARK    5  A    between atoms: C_15  and  O_17
REMARK    6  A    between atoms: P_19  and  O_20
REMARK    7  A    between atoms: P_19  and  O_21
REMARK    8  A    between atoms: P_19  and  C_23
REMARK    9  A    between atoms: O_20  and  O_22
REMARK                            x       y       z     vdW  Elec       q    Type
REMARK                         _______ _______ _______ _____ _____    ______ ____
ROOT
ATOM      1  C   UNL     1      51.948 159.736  30.086  0.00  0.00    -0.005 C 
ATOM      2  C   UNL     1      52.188 158.698  29.243  0.00  0.00    -0.016 C 
ATOM      3  C   UNL     1      53.543 158.425  28.984  0.00  0.00    +0.036 C 
ATOM      4  C   UNL     1      54.565 159.145  29.534  0.00  0.00    +0.167 C 
ATOM      5  C   UNL     1      54.297 160.186  30.379  0.00  0.00    +0.167 C 
ATOM      6  C   UNL     1      52.979 160.474  30.649  0.00  0.00    +0.037 C 
ATOM      7  C   UNL     1      51.128 157.884  28.613  0.00  0.00    +0.062 C 
ATOM      8  C   UNL     1      49.811 158.205  29.280  0.00  0.00    +0.098 C 
ATOM      9  N   UNL     1      49.602 159.610  29.510  0.00  0.00    -0.213 NA
ATOM     10  C   UNL     1      50.585 160.145  30.440  0.00  0.00    +0.115 C 
ENDROOT
BRANCH   7  11
ATOM     11  C   UNL     1      51.335 156.415  28.853  0.00  0.00    -0.014 C 
ATOM     12  C   UNL     1      51.164 155.976  30.076  0.00  0.00    +0.077 C 
BRANCH  12  13
ATOM     13  C   UNL     1      51.349 154.573  30.375  0.00  0.00    +0.338 C 
ATOM     14  O   UNL     1      52.006 153.784  29.631  0.00  0.00    -0.245 OA
BRANCH  13  15
ATOM     15  O   UNL     1      50.771 154.064  31.548  0.00  0.00    -0.477 OA
ATOM     16  H   UNL     1      50.281 154.629  32.112  0.00  0.00    +0.295 HD
ENDBRANCH  13  15
ENDBRANCH  12  13
ENDBRANCH   7  11
BRANCH   5  17
ATOM     17  O   UNL     1      55.332 160.939  30.955  0.00  0.00    -0.503 OA
ATOM     18  H   UNL     1      56.225 160.732  30.762  0.00  0.00    +0.292 HD
ENDBRANCH   5  17
BRANCH   4  19
ATOM     19  O   UNL     1      55.881 158.833  29.242  0.00  0.00    -0.503 OA
ATOM     20  H   UNL     1      56.077 158.122  28.664  0.00  0.00    +0.292 HD
ENDBRANCH   4  19
TORSDOF 5
REMARK  Name = =
REMARK  9 active torsions:
REMARK  status: ('A' for Active; 'I' for Inactive)
REMARK    1  A    between atoms: C_1  and  C_9
REMARK    2  A    between atoms: C_2  and  C_15
REMARK    3  A    between atoms: C_6  and  O_14
REMARK    4  A    between atoms: C_7  and  O_13
REMARK    5  A    between atoms: C_15  and  O_17
REMARK    6  A    between atoms: P_19  and  O_20
REMARK    7  A    between atoms: P_19  and  O_21
REMARK    8  A    between atoms: P_19  and  C_23
REMARK    9  A    between atoms: O_20  and  O_22
REMARK                            x       y       z     vdW  Elec       q    Type
REMARK                         _______ _______ _______ _____ _____    ______ ____
ROOT
ATOM      1  I   UNL     1      51.842 155.060  27.358  0.00  0.00    -0.107 I 
ATOM      2  H   UNL     1      53.403 155.060  27.358  0.00  0.00    +0.107 HD
ENDROOT
TORSDOF 0
REMARK  Name = =
REMARK  9 active torsions:
REMARK  status: ('A' for Active; 'I' for Inactive)
REMARK    1  A    between atoms: C_1  and  C_9
REMARK    2  A    between atoms: C_2  and  C_15
REMARK    3  A    between atoms: C_6  and  O_14
REMARK    4  A    between atoms: C_7  and  O_13
REMARK    5  A    between atoms: C_15  and  O_17
REMARK    6  A    between atoms: P_19  and  O_20
REMARK    7  A    between atoms: P_19  and  O_21
REMARK    8  A    between atoms: P_19  and  C_23
REMARK    9  A    between atoms: O_20  and  O_22
REMARK                            x       y       z     vdW  Elec       q    Type
REMARK                         _______ _______ _______ _____ _____    ______ ____
ROOT
ATOM      1  P   UNL     1      53.561 156.198  26.031  0.00  0.00    +0.156 P 
ATOM      2  H   UNL     1      52.811 155.952  27.163  0.00  0.00    +0.118 HD
ENDROOT
BRANCH   1   3
ATOM      3  O   UNL     1      54.686 157.408  25.984  0.00  0.00    -0.352 OA
ATOM      4  H   UNL     1      55.107 157.424  25.110  0.00  0.00    +0.217 HD
ENDBRANCH   1   3
BRANCH   1   5
ATOM      5  C   UNL     1      54.137 154.895  25.013  0.00  0.00    +0.042 C 
ATOM      6  C   UNL     1      55.422 154.634  24.731  0.00  0.00    +0.004 C 
ENDBRANCH   1   5
BRANCH   1   7
ATOM      7  O   UNL     1      53.585 156.723  24.619  0.00  0.00    -0.193 OA
BRANCH   7   8
ATOM      8  O   UNL     1      52.149 156.841  25.418  0.00  0.00    -0.245 OA
ATOM      9  H   UNL     1      51.489 157.252  24.838  0.00  0.00    +0.253 HD
ENDBRANCH   7   8
ENDBRANCH   1   7
TORSDOF 4
