REMARK  Name = =
REMARK  7 active torsions:
REMARK  status: ('A' for Active; 'I' for Inactive)
REMARK    1  A    between atoms: C_1  and  C_14
REMARK    2  A    between atoms: C_2  and  O_25
REMARK    3  A    between atoms: C_3  and  N_22
REMARK    4  A    between atoms: C_4  and  O_26
REMARK    5  A    between atoms: N_13  and  C_16
REMARK    6  A    between atoms: O_26  and  C_27
REMARK    7  A    between atoms: C_30  and  C_33
REMARK                            x       y       z     vdW  Elec       q    Type
REMARK                         _______ _______ _______ _____ _____    ______ ____
ROOT
ATOM      1  C   UNL     1      51.951 156.175  28.174  0.00  0.00    +0.089 C 
ATOM      2  C   UNL     1      52.223 157.246  28.998  0.00  0.00    +0.154 C 
ATOM      3  C   UNL     1      51.277 157.754  29.918  0.00  0.00    +0.120 C 
ATOM      4  C   UNL     1      50.044 157.188  30.023  0.00  0.00    +0.162 C 
ATOM      5  C   UNL     1      49.776 156.098  29.179  0.00  0.00    +0.039 C 
ATOM      6  C   UNL     1      50.689 155.600  28.280  0.00  0.00    +0.011 C 
ENDROOT
BRANCH   1  14
ATOM      7  N   UNL     1      54.930 154.263  25.464  0.00  0.00    -0.212 NA
ATOM      8  C   UNL     1      53.594 154.341  25.271  0.00  0.00    +0.226 C 
ATOM      9  N   UNL     1      53.123 154.284  24.033  0.00  0.00    -0.212 NA
ATOM     10  C   UNL     1      53.989 154.150  23.010  0.00  0.00    +0.103 C 
ATOM     11  C   UNL     1      55.344 154.070  23.182  0.00  0.00    +0.041 C 
ATOM     12  C   UNL     1      55.817 154.131  24.486  0.00  0.00    +0.103 C 
ATOM     13  N   UNL     1      52.821 154.477  26.458  0.00  0.00    -0.227 N 
ATOM     14  C   UNL     1      52.861 155.692  27.148  0.00  0.00    +0.258 C 
ATOM     15  O   UNL     1      53.813 156.532  26.875  0.00  0.00    -0.269 OA
BRANCH  13  16
ATOM     16  C   UNL     1      52.139 153.319  26.946  0.00  0.00    +0.083 C 
ATOM     17  C   UNL     1      52.896 152.810  28.211  0.00  0.00    +0.020 C 
ATOM     18  C   UNL     1      51.937 151.947  28.955  0.00  0.00    +0.002 C 
ATOM     19  C   UNL     1      51.486 150.824  28.082  0.00  0.00    +0.000 C 
ATOM     20  C   UNL     1      52.123 150.827  26.714  0.00  0.00    +0.002 C 
ATOM     21  C   UNL     1      52.046 152.161  26.015  0.00  0.00    +0.020 C 
ENDBRANCH  13  16
ENDBRANCH   1  14
BRANCH   3  22
ATOM     22  N   UNL     1      51.648 158.850  30.743  0.00  0.00    -0.272 N 
ATOM     23  C   UNL     1      51.484 160.174  30.312  0.00  0.00    +0.304 C 
ATOM     24  O   UNL     1      50.991 160.381  29.159  0.00  0.00    -0.265 OA
ATOM     25  H   UNL     1      52.028 158.676  31.635  0.00  0.00    +0.155 HD
ENDBRANCH   3  22
BRANCH   2  26
ATOM     26  O   UNL     1      53.429 157.887  28.982  0.00  0.00    -0.504 OA
ATOM     27  H   UNL     1      54.103 157.603  28.396  0.00  0.00    +0.292 HD
ENDBRANCH   2  26
BRANCH   4  28
ATOM     28  O   UNL     1      49.089 157.622  30.884  0.00  0.00    -0.452 OA
BRANCH  28  29
ATOM     29  C   UNL     1      48.900 158.836  31.463  0.00  0.00    +0.145 C 
ATOM     30  C   UNL     1      49.161 159.108  32.805  0.00  0.00    +0.038 C 
ATOM     31  C   UNL     1      48.957 160.355  33.346  0.00  0.00    +0.006 C 
ATOM     32  C   UNL     1      48.484 161.400  32.594  0.00  0.00    +0.042 C 
ATOM     33  C   UNL     1      48.215 161.154  31.258  0.00  0.00    +0.006 C 
ATOM     34  C   UNL     1      48.417 159.910  30.710  0.00  0.00    +0.038 C 
BRANCH  32  35
ATOM     35  C   UNL     1      48.251 162.726  33.156  0.00  0.00    +0.234 C 
ATOM     36  O   UNL     1      48.491 162.933  34.356  0.00  0.00    -0.283 OA
ENDBRANCH  32  35
ENDBRANCH  28  29
ENDBRANCH   4  28
TORSDOF 7
