MODEL 1
REMARK VINA RESULT:   -12.608      0.000      0.000
REMARK INTER + INTRA:         -16.786
REMARK INTER:                 -15.925
REMARK INTRA:                  -0.862
REMARK UNBOUND:                -0.862
REMARK  Name = =
REMARK  5 active torsions:
REMARK  status: ('A' for Active; 'I' for Inactive)
REMARK    1  A    between atoms: C_1  and  C_40
REMARK    2  A    between atoms: C_5  and  C_11
REMARK    3  A    between atoms: C_8  and  C_25
REMARK    4  A    between atoms: C_9  and  O_50
REMARK    5  A    between atoms: N_39  and  N_47
REMARK                            x       y       z     vdW  Elec       q    Type
REMARK                         _______ _______ _______ _____ _____    ______ ____
ROOT
ATOM      1  C   UNL     1       1.089  -5.766  26.928  0.00  0.00    +0.058 C 
ATOM      2  C   UNL     1       1.199  -7.059  26.527  0.00  0.00    +0.025 C 
ATOM      3  C   UNL     1       0.405  -8.011  27.126  0.00  0.00    +0.082 C 
ATOM      4  N   UNL     1      -0.449  -7.657  28.074  0.00  0.00    -0.245 NA
ATOM      5  C   UNL     1      -0.641  -6.434  28.534  0.00  0.00    +0.081 C 
ATOM      6  C   UNL     1       0.150  -5.460  27.946  0.00  0.00    +0.024 C 
ATOM      7  C   UNL     1       0.506  -9.318  26.682  0.00  0.00    +0.022 C 
ATOM      8  C   UNL     1       1.362  -9.686  25.668  0.00  0.00    +0.035 C 
ATOM      9  C   UNL     1       2.150  -8.702  25.081  0.00  0.00    +0.134 C 
ATOM     10  C   UNL     1       2.079  -7.379  25.498  0.00  0.00    +0.038 C 
ENDROOT
BRANCH   5  11
ATOM     11  C   UNL     1      -1.593  -6.027  29.566  0.00  0.00    +0.018 C 
ATOM     12  C   UNL     1      -1.921  -6.835  30.654  0.00  0.00    +0.003 C 
ATOM     13  C   UNL     1      -2.854  -6.405  31.611  0.00  0.00    +0.018 C 
ATOM     14  C   UNL     1      -3.476  -5.172  31.504  0.00  0.00    +0.084 C 
ATOM     15  N   UNL     1      -4.367  -4.777  32.427  0.00  0.00    -0.224 NA
ATOM     16  C   UNL     1      -4.955  -3.569  32.290  0.00  0.00    +0.199 C 
ATOM     17  N   UNL     1      -4.647  -2.771  31.238  0.00  0.00    -0.222 NA
ATOM     18  C   UNL     1      -3.761  -3.125  30.293  0.00  0.00    +0.102 C 
ATOM     19  C   UNL     1      -3.161  -4.373  30.443  0.00  0.00    +0.037 C 
ATOM     20  C   UNL     1      -2.244  -4.815  29.517  0.00  0.00    +0.005 C 
ATOM     21  C   UNL     1      -3.163  -7.234  32.683  0.00  0.00    +0.001 C 
ATOM     22  C   UNL     1      -2.573  -8.468  32.827  0.00  0.00    +0.000 C 
ATOM     23  C   UNL     1      -1.657  -8.911  31.907  0.00  0.00    +0.000 C 
ATOM     24  C   UNL     1      -1.345  -8.074  30.822  0.00  0.00    +0.000 C 
ENDBRANCH   5  11
BRANCH   8  25
ATOM     25  C   UNL     1       1.371 -11.079  25.254  0.00  0.00    +0.003 C 
ATOM     26  C   UNL     1       2.340 -11.924  25.679  0.00  0.00    +0.002 C 
ATOM     27  C   UNL     1       2.340 -13.266  25.284  0.00  0.00    +0.018 C 
ATOM     28  C   UNL     1       1.328 -13.725  24.444  0.00  0.00    +0.084 C 
ATOM     29  N   UNL     1       1.323 -15.015  24.063  0.00  0.00    -0.224 NA
ATOM     30  C   UNL     1       0.363 -15.488  23.259  0.00  0.00    +0.199 C 
ATOM     31  N   UNL     1      -0.598 -14.642  22.842  0.00  0.00    -0.222 NA
ATOM     32  C   UNL     1      -0.634 -13.355  23.192  0.00  0.00    +0.102 C 
ATOM     33  C   UNL     1       0.349 -12.854  24.021  0.00  0.00    +0.037 C 
ATOM     34  C   UNL     1       0.361 -11.537  24.416  0.00  0.00    +0.003 C 
ATOM     35  C   UNL     1       3.314 -14.142  25.705  0.00  0.00    +0.001 C 
ATOM     36  C   UNL     1       4.311 -13.713  26.526  0.00  0.00    +0.000 C 
ATOM     37  C   UNL     1       4.351 -12.393  26.943  0.00  0.00    +0.000 C 
ATOM     38  C   UNL     1       3.366 -11.536  26.508  0.00  0.00    +0.000 C 
ENDBRANCH   8  25
BRANCH   1  40
ATOM     39  N   UNL     1       2.720  -3.833  27.258  0.00  0.00    -0.220 N 
ATOM     40  C   UNL     1       1.930  -4.678  26.464  0.00  0.00    +0.262 C 
ATOM     41  O   UNL     1       1.935  -4.479  25.206  0.00  0.00    -0.269 OA
ATOM     42  H   UNL     1       2.724  -3.953  28.235  0.00  0.00    +0.174 HD
BRANCH  39  48
ATOM     43  C   UNL     1       2.959  -1.597  26.255  0.00  0.00    +0.259 A 
ATOM     44  N   UNL     1       2.121  -0.767  26.913  0.00  0.00    -0.090 NA
ATOM     45  N   UNL     1       1.888   0.240  26.085  0.00  0.00    -0.022 NA
ATOM     46  N   UNL     1       2.545   0.069  24.945  0.00  0.00    -0.045 NA
ATOM     47  N   UNL     1       3.207  -1.056  25.035  0.00  0.00    -0.226 N 
ATOM     48  N   UNL     1       3.516  -2.805  26.679  0.00  0.00    -0.144 N 
ATOM     49  C   UNL     1       4.897  -3.054  26.550  0.00  0.00    +0.327 C 
ATOM     50  O   UNL     1       5.643  -2.182  26.054  0.00  0.00    -0.263 OA
ATOM     51  H   UNL     1       3.784  -1.443  24.338  0.00  0.00    +0.194 HD
ENDBRANCH  39  48
ENDBRANCH   1  40
BRANCH   9  52
ATOM     52  O   UNL     1       3.014  -9.073  24.060  0.00  0.00    -0.506 OA
ATOM     53  H   UNL     1       2.941  -8.674  23.215  0.00  0.00    +0.292 HD
ENDBRANCH   9  52
TORSDOF 5
ENDMDL
