REMARK  Name = =
REMARK  6 active torsions:
REMARK  status: ('A' for Active; 'I' for Inactive)
REMARK    1  A    between atoms: C_1  and  C_27
REMARK    2  A    between atoms: C_6  and  N_15
REMARK    3  A    between atoms: C_13  and  N_22
REMARK    4  A    between atoms: C_27  and  O_29
REMARK    5  A    between atoms: O_29  and  N_30
REMARK    6  A    between atoms: C_31  and  C_37
REMARK                            x       y       z     vdW  Elec       q    Type
REMARK                         _______ _______ _______ _____ _____    ______ ____
ROOT
ATOM      1  C   UNL     1       2.585  -7.517  26.362  0.00  0.00    +0.016 C 
ATOM      2  C   UNL     1       1.279  -7.323  26.784  0.00  0.00    -0.022 C 
ATOM      3  C   UNL     1       0.384  -8.375  26.893  0.00  0.00    -0.022 C 
ATOM      4  C   UNL     1       0.728  -9.664  26.587  0.00  0.00    -0.003 C 
ATOM      5  C   UNL     1       2.009  -9.887  26.158  0.00  0.00    +0.014 C 
ATOM      6  C   UNL     1       2.907  -8.822  26.050  0.00  0.00    +0.052 C 
ATOM      7  C   UNL     1      -0.989  -8.104  27.444  0.00  0.00    +0.052 C 
ATOM      8  C   UNL     1      -0.721  -7.198  28.621  0.00  0.00    -0.020 C 
ATOM      9  C   UNL     1       0.105  -6.123  28.469  0.00  0.00    -0.021 C 
ATOM     10  C   UNL     1       0.758  -5.970  27.118  0.00  0.00    +0.052 C 
ATOM     11  C   UNL     1       0.335  -5.300  29.528  0.00  0.00    -0.003 C 
ATOM     12  C   UNL     1      -0.268  -5.568  30.747  0.00  0.00    +0.014 C 
ATOM     13  C   UNL     1      -1.099  -6.657  30.906  0.00  0.00    +0.048 C 
ATOM     14  C   UNL     1      -1.325  -7.481  29.811  0.00  0.00    +0.010 C 
ENDROOT
BRANCH   6  15
ATOM     15  N   UNL     1       4.125  -9.084  25.364  0.00  0.00    -0.259 N 
ATOM     16  C   UNL     1       4.062  -8.704  23.930  0.00  0.00    +0.098 C 
ATOM     17  C   UNL     1       4.690  -9.707  23.036  0.00  0.00    +0.022 C 
ATOM     18  C   UNL     1       5.466 -10.784  23.754  0.00  0.00    +0.011 C 
ATOM     19  C   UNL     1       6.301 -10.077  24.833  0.00  0.00    +0.086 C 
ATOM     20  C   UNL     1       5.295  -9.642  25.861  0.00  0.00    +0.229 C 
ATOM     21  O   UNL     1       5.542  -9.792  27.053  0.00  0.00    -0.275 OA
ENDBRANCH   6  15
BRANCH  13  22
ATOM     22  N   UNL     1      -1.704  -7.035  32.123  0.00  0.00    -0.307 N 
ATOM     23  C   UNL     1      -2.865  -6.574  32.819  0.00  0.00    +0.091 C 
ATOM     24  C   UNL     1      -3.536  -7.851  33.332  0.00  0.00    +0.023 C 
ATOM     25  C   UNL     1      -2.350  -8.761  33.598  0.00  0.00    +0.023 C 
ATOM     26  C   UNL     1      -1.147  -8.129  32.958  0.00  0.00    +0.091 C 
ENDBRANCH  13  22
BRANCH   1  27
ATOM     27  C   UNL     1       3.530  -6.410  26.270  0.00  0.00    +0.161 C 
ATOM     28  C   UNL     1       3.925  -5.917  27.679  0.00  0.00    +0.039 C 
BRANCH  27  29
ATOM     29  O   UNL     1       3.484  -5.409  25.394  0.00  0.00    -0.280 OA
BRANCH  29  30
ATOM     30  N   UNL     1       4.163  -4.304  25.769  0.00  0.00    -0.159 NA
ATOM     31  C   UNL     1       4.431  -3.389  24.711  0.00  0.00    +0.133 C 
ATOM     32  C   UNL     1       3.483  -2.218  24.613  0.00  0.00    +0.173 C 
ATOM     33 CL   UNL     1       1.849  -2.684  24.187  0.00  0.00    -0.094 Cl
ATOM     34  N   UNL     1       3.424  -1.481  25.864  0.00  0.00    -0.200 NA
ATOM     35  C   UNL     1       4.180  -2.160  26.850  0.00  0.00    +0.110 C 
ATOM     36  C   UNL     1       3.694  -3.626  26.921  0.00  0.00    +0.120 C 
BRANCH  31  37
ATOM     37  C   UNL     1       4.701  -4.011  23.430  0.00  0.00    -0.029 C 
ATOM     38  C   UNL     1       3.903  -3.926  22.399  0.00  0.00    -0.033 C 
ATOM     39  C   UNL     1       4.193  -4.572  21.084  0.00  0.00    +0.025 C 
ATOM     40  C   UNL     1       5.665  -4.512  20.754  0.00  0.00    +0.005 C 
ATOM     41  C   UNL     1       6.552  -4.255  21.928  0.00  0.00    +0.005 C 
ATOM     42  C   UNL     1       5.980  -4.780  23.232  0.00  0.00    +0.023 C 
ENDBRANCH  31  37
ENDBRANCH  29  30
ENDBRANCH  27  29
ENDBRANCH   1  27
TORSDOF 6
