REMARK  Name = =
REMARK  5 active torsions:
REMARK  status: ('A' for Active; 'I' for Inactive)
REMARK    1  A    between atoms: C_1  and  O_9
REMARK    2  A    between atoms: C_2  and  O_24
REMARK    3  A    between atoms: O_9  and  C_10
REMARK    4  A    between atoms: C_10  and  C_20
REMARK    5  A    between atoms: O_24  and  C_25
REMARK                            x       y       z     vdW  Elec       q    Type
REMARK                         _______ _______ _______ _____ _____    ______ ____
ROOT
ATOM      1  C   UNL     1      53.097 153.947  27.458  0.00  0.00    +0.217 C 
ATOM      2  C   UNL     1      52.598 154.351  28.634  0.00  0.00    +0.214 C 
ATOM      3  C   UNL     1      51.664 153.548  29.405  0.00  0.00    +0.233 C 
ATOM      4  O   UNL     1      51.212 153.961  30.510  0.00  0.00    -0.283 OA
ATOM      5  C   UNL     1      51.277 152.250  28.846  0.00  0.00    +0.049 C 
ATOM      6  C   UNL     1      51.748 151.818  27.694  0.00  0.00    +0.049 C 
ATOM      7  C   UNL     1      52.698 152.648  26.919  0.00  0.00    +0.233 C 
ATOM      8  O   UNL     1      53.152 152.243  25.821  0.00  0.00    -0.283 OA
ENDROOT
BRANCH   1   9
ATOM      9  O   UNL     1      53.973 154.785  26.810  0.00  0.00    -0.447 OA
BRANCH   9  10
ATOM     10  C   UNL     1      53.798 155.295  25.536  0.00  0.00    +0.265 C 
ATOM     11  S   UNL     1      52.005 155.533  25.160  0.00  0.00    -0.077 S 
ATOM     12  C   UNL     1      52.129 157.226  24.454  0.00  0.00    +0.084 C 
ATOM     13  C   UNL     1      53.653 157.334  24.316  0.00  0.00    +0.110 C 
ATOM     14  N   UNL     1      54.214 156.707  25.476  0.00  0.00    -0.231 N 
ATOM     15  C   UNL     1      55.053 157.300  26.460  0.00  0.00    +0.306 C 
ATOM     16  O   UNL     1      55.395 158.519  26.383  0.00  0.00    -0.265 OA
BRANCH  10  20
ATOM     17  O   UNL     1      55.829 153.187  23.218  0.00  0.00    -0.421 OA
ATOM     18  C   UNL     1      55.624 153.784  24.451  0.00  0.00    +0.348 C 
ATOM     19  O   UNL     1      56.402 153.693  25.435  0.00  0.00    -0.245 OA
ATOM     20  C   UNL     1      54.371 154.528  24.428  0.00  0.00    +0.121 C 
ATOM     21  C   UNL     1      53.872 154.358  23.204  0.00  0.00    +0.046 C 
ATOM     22  C   UNL     1      54.746 153.524  22.396  0.00  0.00    +0.149 C 
ATOM     23  C   UNL     1      54.535 153.171  21.146  0.00  0.00    +0.041 C 
ENDBRANCH  10  20
ENDBRANCH   9  10
ENDBRANCH   1   9
BRANCH   2  24
ATOM     24  O   UNL     1      52.985 155.575  29.131  0.00  0.00    -0.473 OA
BRANCH  24  25
ATOM     25  C   UNL     1      52.194 156.712  28.773  0.00  0.00    +0.170 C 
ATOM     26  C   UNL     1      52.792 157.981  29.355  0.00  0.00    +0.044 C 
ATOM     27  C   UNL     1      51.884 159.117  28.963  0.00  0.00    +0.008 C 
ATOM     28  C   UNL     1      50.671 159.070  29.826  0.00  0.00    +0.018 C 
ATOM     29  C   UNL     1      50.870 159.485  31.240  0.00  0.00    +0.004 C 
ATOM     30  C   UNL     1      49.525 159.653  31.888  0.00  0.00    +0.005 C 
ATOM     31  C   UNL     1      48.945 160.974  31.417  0.00  0.00    +0.000 C 
ATOM     32  C   UNL     1      49.836 162.084  31.872  0.00  0.00    +0.000 C 
ATOM     33  C   UNL     1      49.730 162.026  33.358  0.00  0.00    +0.000 C 
ATOM     34  C   UNL     1      48.295 161.567  33.619  0.00  0.00    +0.000 C 
ATOM     35  C   UNL     1      47.706 161.212  32.291  0.00  0.00    +0.000 C 
ATOM     36  C   UNL     1      51.237 161.975  31.343  0.00  0.00    +0.000 C 
ATOM     37  C   UNL     1      51.801 160.605  31.491  0.00  0.00    +0.000 C 
ATOM     38  C   UNL     1      48.584 158.579  31.481  0.00  0.00    +0.025 C 
ATOM     39  C   UNL     1      49.162 157.453  30.728  0.00  0.00    -0.035 C 
ATOM     40  C   UNL     1      50.182 157.643  29.906  0.00  0.00    -0.045 C 
ATOM     41  C   UNL     1      50.751 156.526  29.163  0.00  0.00    +0.065 C 
ENDBRANCH  24  25
ENDBRANCH   2  24
TORSDOF 5
