MODEL 1
REMARK VINA RESULT:    -7.115      0.000      0.000
REMARK INTER + INTRA:         -13.143
REMARK INTER:                 -10.859
REMARK INTRA:                  -2.284
REMARK UNBOUND:                -2.284
REMARK  Name = =
REMARK  10 active torsions:
REMARK  status: ('A' for Active; 'I' for Inactive)
REMARK    1  A    between atoms: C_2  and  P_15
REMARK    2  A    between atoms: C_8  and  C_12
REMARK    3  A    between atoms: C_9  and  O_34
REMARK    4  A    between atoms: C_11  and  O_33
REMARK    5  A    between atoms: P_15  and  S_17
REMARK    6  A    between atoms: S_17  and  C_18
REMARK    7  A    between atoms: C_18  and  N_20
REMARK    8  A    between atoms: N_20  and  C_21
REMARK    9  A    between atoms: C_21  and  O_22
REMARK   10  A    between atoms: O_22  and  C_23
REMARK                            x       y       z     vdW  Elec       q    Type
REMARK                         _______ _______ _______ _____ _____    ______ ____
ROOT
ATOM      1  O   UNL     1      51.563 165.135  41.497  0.00  0.00    -0.470 OA
ATOM      2  C   UNL     1      52.924 165.362  41.735  0.00  0.00    +0.231 C 
ATOM      3  C   UNL     1      53.413 164.388  42.811  0.00  0.00    +0.121 C 
ATOM      4  C   UNL     1      53.130 163.042  42.250  0.00  0.00    +0.183 C 
ATOM      5  O   UNL     1      53.960 162.141  42.061  0.00  0.00    -0.291 OA
ATOM      6  C   UNL     1      51.713 162.801  41.898  0.00  0.00    +0.103 C 
ATOM      7  C   UNL     1      50.977 163.897  41.527  0.00  0.00    +0.152 C 
ATOM      8  C   UNL     1      49.620 163.836  41.159  0.00  0.00    +0.121 C 
ATOM      9  C   UNL     1      49.053 162.580  41.193  0.00  0.00    +0.144 C 
ATOM     10  C   UNL     1      49.804 161.449  41.575  0.00  0.00    +0.074 C 
ATOM     11  C   UNL     1      51.141 161.574  41.927  0.00  0.00    +0.142 C 
ENDROOT
BRANCH   8  12
ATOM     12  C   UNL     1      48.934 165.054  40.783  0.00  0.00    +0.249 C 
ATOM     13  O   UNL     1      47.843 165.348  41.323  0.00  0.00    -0.270 OA
ATOM     14  N   UNL     1      49.444 165.930  39.826  0.00  0.00    -0.325 N 
ATOM     15  H   UNL     1      50.300 165.730  39.381  0.00  0.00    +0.145 HD
ATOM     16  H   UNL     1      48.949 166.749  39.595  0.00  0.00    +0.145 HD
ENDBRANCH   8  12
BRANCH   2  17
ATOM     17  P   UNL     1      53.958 165.082  40.287  0.00  0.00    +0.182 P 
ATOM     18  O   UNL     1      53.302 165.575  39.015  0.00  0.00    -0.309 OA
ATOM     19  H   UNL     1      52.903 165.783  39.738  0.00  0.00    +0.114 HD
BRANCH  17  20
ATOM     20  S   UNL     1      55.844 165.974  40.434  0.00  0.00    -0.036 S 
BRANCH  20  21
ATOM     21  C   UNL     1      57.108 164.818  40.949  0.00  0.00    +0.116 C 
ATOM     22  S   UNL     1      58.657 165.256  40.690  0.00  0.00    -0.028 S 
BRANCH  21  23
ATOM     23  N   UNL     1      56.708 163.598  41.502  0.00  0.00    -0.286 N 
ATOM     24  H   UNL     1      55.944 163.138  41.084  0.00  0.00    +0.151 HD
BRANCH  23  25
ATOM     25  C   UNL     1      57.323 162.967  42.628  0.00  0.00    +0.304 C 
BRANCH  25  26
ATOM     26  O   UNL     1      58.262 162.027  42.409  0.00  0.00    -0.438 OA
BRANCH  26  27
ATOM     27  C   UNL     1      58.415 160.775  42.005  0.00  0.00    +0.244 C 
ATOM     28  C   UNL     1      58.673 160.572  40.632  0.00  0.00    +0.134 C 
ATOM     29  C   UNL     1      58.846 159.310  40.118  0.00  0.00    +0.024 C 
ATOM     30  C   UNL     1      58.767 158.209  40.954  0.00  0.00    +0.022 C 
ATOM     31  C   UNL     1      58.514 158.419  42.294  0.00  0.00    +0.102 C 
ATOM     32  N   UNL     1      58.355 159.664  42.732  0.00  0.00    -0.209 NA
ATOM     33  C   UNL     1      59.100 159.096  38.770  0.00  0.00    +0.003 C 
ATOM     34  C   UNL     1      59.180 160.187  37.932  0.00  0.00    +0.021 C 
ATOM     35  C   UNL     1      58.999 161.431  38.495  0.00  0.00    +0.099 C 
ATOM     36  N   UNL     1      58.754 161.624  39.801  0.00  0.00    -0.239 NA
ENDBRANCH  26  27
ENDBRANCH  25  26
ENDBRANCH  23  25
ENDBRANCH  21  23
ENDBRANCH  20  21
ENDBRANCH  17  20
ENDBRANCH   2  17
BRANCH  11  37
ATOM     37  O   UNL     1      51.849 160.467  42.297  0.00  0.00    -0.505 OA
ATOM     38  H   UNL     1      51.465 159.836  42.873  0.00  0.00    +0.292 HD
ENDBRANCH  11  37
BRANCH   9  39
ATOM     39  O   UNL     1      47.741 162.366  40.861  0.00  0.00    -0.505 OA
ATOM     40  H   UNL     1      47.495 161.591  40.397  0.00  0.00    +0.292 HD
ENDBRANCH   9  39
TORSDOF 10
ENDMDL
