MODEL 1
REMARK VINA RESULT:    -8.319      0.000      0.000
REMARK INTER + INTRA:          -9.402
REMARK INTER:                 -11.237
REMARK INTRA:                   1.835
REMARK UNBOUND:                 1.835
REMARK  Name = =
REMARK  7 active torsions:
REMARK  status: ('A' for Active; 'I' for Inactive)
REMARK    1  A    between atoms: C_2  and  N_7
REMARK    2  A    between atoms: C_2  and  C_12
REMARK    3  A    between atoms: N_10  and  N_11
REMARK    4  A    between atoms: C_12  and  P_14
REMARK    5  A    between atoms: P_14  and  O_16
REMARK    6  A    between atoms: P_14  and  O_17
REMARK    7  A    between atoms: O_17  and  N_18
REMARK                            x       y       z     vdW  Elec       q    Type
REMARK                         _______ _______ _______ _____ _____    ______ ____
ROOT
ATOM      1  O   UNL     1      53.778 152.711  24.214  0.00  0.00    -0.316 OA
ATOM      2  C   UNL     1      53.650 152.509  25.602  0.00  0.00    +0.286 C 
ATOM      3  O   UNL     1      54.890 152.498  26.192  0.00  0.00    -0.316 OA
ATOM      4  C   UNL     1      55.899 152.878  25.346  0.00  0.00    +0.149 C 
ATOM      5  C   UNL     1      55.542 154.197  24.697  0.00  0.00    +0.064 C 
ATOM      6  C   UNL     1      54.175 154.049  24.069  0.00  0.00    +0.149 C 
ENDROOT
BRANCH   2   7
ATOM      7  N   UNL     1      52.976 151.250  25.878  0.00  0.00    -0.243 N 
ATOM      8  C   UNL     1      53.296 150.024  25.241  0.00  0.00    +0.317 C 
ATOM      9  O   UNL     1      54.215 150.029  24.391  0.00  0.00    -0.251 OA
ATOM     10  N   UNL     1      52.586 148.814  25.564  0.00  0.00    -0.237 N 
ATOM     11  H   UNL     1      52.254 151.248  26.547  0.00  0.00    +0.156 HD
ATOM     12  H   UNL     1      51.865 148.815  26.233  0.00  0.00    +0.170 HD
BRANCH  10  13
ATOM     13  N   UNL     1      52.949 147.641  24.902  0.00  0.00    -0.253 NA
ATOM     14  H   UNL     1      52.136 147.031  24.822  0.00  0.00    +0.141 HD
ATOM     15  H   UNL     1      53.680 147.165  25.431  0.00  0.00    +0.141 HD
ENDBRANCH  10  13
ENDBRANCH   2   7
BRANCH   2  16
ATOM     16  C   UNL     1      52.787 153.612  26.091  0.00  0.00    +0.129 C 
ATOM     17  C   UNL     1      52.385 154.557  25.279  0.00  0.00    +0.010 C 
BRANCH  16  18
ATOM     18  P   UNL     1      52.311 153.626  27.800  0.00  0.00    +0.381 P 
ATOM     19  O   UNL     1      51.685 152.304  28.229  0.00  0.00    -0.252 OA
BRANCH  18  20
ATOM     20  O   UNL     1      53.731 153.902  28.713  0.00  0.00    -0.320 OA
ATOM     21  H   UNL     1      54.507 153.643  28.191  0.00  0.00    +0.220 HD
ENDBRANCH  18  20
BRANCH  18  22
ATOM     22  O   UNL     1      51.166 154.826  28.138  0.00  0.00    -0.211 OA
BRANCH  22  23
ATOM     23  N   UNL     1      51.774 155.691  28.975  0.00  0.00    -0.149 NA
ATOM     24  C   UNL     1      52.591 156.657  28.312  0.00  0.00    +0.128 C 
ATOM     25  C   UNL     1      52.279 157.954  28.945  0.00  0.00    -0.010 C 
ATOM     26  C   UNL     1      51.298 157.790  29.827  0.00  0.00    -0.010 C 
ATOM     27  C   UNL     1      50.880 156.371  29.852  0.00  0.00    +0.128 C 
ENDBRANCH  22  23
ENDBRANCH  18  22
ENDBRANCH  16  18
ENDBRANCH   2  16
TORSDOF 7
ENDMDL
