REMARK  Name = =
REMARK  10 active torsions:
REMARK  status: ('A' for Active; 'I' for Inactive)
REMARK    1  A    between atoms: C_2  and  P_15
REMARK    2  A    between atoms: C_8  and  C_12
REMARK    3  A    between atoms: C_9  and  O_34
REMARK    4  A    between atoms: C_11  and  O_33
REMARK    5  A    between atoms: P_15  and  S_17
REMARK    6  A    between atoms: S_17  and  C_18
REMARK    7  A    between atoms: C_18  and  N_20
REMARK    8  A    between atoms: N_20  and  C_21
REMARK    9  A    between atoms: C_21  and  O_22
REMARK   10  A    between atoms: O_22  and  C_23
REMARK                            x       y       z     vdW  Elec       q    Type
REMARK                         _______ _______ _______ _____ _____    ______ ____
ROOT
ATOM      1  O   UNL     1      48.836 159.044  30.110  0.00  0.00    -0.470 OA
ATOM      2  C   UNL     1      49.737 158.333  29.307  0.00  0.00    +0.231 C 
ATOM      3  C   UNL     1      50.910 159.247  28.942  0.00  0.00    +0.121 C 
ATOM      4  C   UNL     1      51.484 159.655  30.250  0.00  0.00    +0.183 C 
ATOM      5  O   UNL     1      52.654 159.482  30.620  0.00  0.00    -0.291 OA
ATOM      6  C   UNL     1      50.532 160.327  31.163  0.00  0.00    +0.103 C 
ATOM      7  C   UNL     1      49.212 159.974  31.042  0.00  0.00    +0.152 C 
ATOM      8  C   UNL     1      48.185 160.517  31.837  0.00  0.00    +0.121 C 
ATOM      9  C   UNL     1      48.587 161.448  32.770  0.00  0.00    +0.144 C 
ATOM     10  C   UNL     1      49.943 161.816  32.899  0.00  0.00    +0.074 C 
ATOM     11  C   UNL     1      50.911 161.244  32.084  0.00  0.00    +0.142 C 
ENDROOT
BRANCH   8  12
ATOM     12  C   UNL     1      46.822 160.076  31.629  0.00  0.00    +0.249 C 
ATOM     13  O   UNL     1      46.155 160.538  30.675  0.00  0.00    -0.270 OA
ATOM     14  N   UNL     1      46.207 159.141  32.461  0.00  0.00    -0.325 N 
ATOM     15  H   UNL     1      46.702 158.757  33.221  0.00  0.00    +0.145 HD
ATOM     16  H   UNL     1      45.278 158.865  32.289  0.00  0.00    +0.145 HD
ENDBRANCH   8  12
BRANCH   2  17
ATOM     17  P   UNL     1      50.446 156.897  30.130  0.00  0.00    +0.182 P 
ATOM     18  O   UNL     1      49.383 155.932  30.610  0.00  0.00    -0.309 OA
ATOM     19  H   UNL     1      49.105 156.570  30.119  0.00  0.00    +0.114 HD
BRANCH  17  20
ATOM     20  S   UNL     1      51.791 155.837  28.929  0.00  0.00    -0.036 S 
BRANCH  20  21
ATOM     21  C   UNL     1      52.874 156.916  28.000  0.00  0.00    +0.116 C 
ATOM     22  S   UNL     1      54.090 157.626  28.822  0.00  0.00    -0.028 S 
BRANCH  21  23
ATOM     23  N   UNL     1      52.602 157.124  26.645  0.00  0.00    -0.286 N 
ATOM     24  H   UNL     1      51.764 157.587  26.415  0.00  0.00    +0.151 HD
BRANCH  23  25
ATOM     25  C   UNL     1      53.448 156.716  25.566  0.00  0.00    +0.304 C 
BRANCH  25  26
ATOM     26  O   UNL     1      53.071 155.667  24.810  0.00  0.00    -0.438 OA
BRANCH  26  27
ATOM     27  C   UNL     1      53.376 154.406  24.545  0.00  0.00    +0.244 C 
ATOM     28  C   UNL     1      52.991 153.440  25.500  0.00  0.00    +0.134 C 
ATOM     29  C   UNL     1      53.263 152.106  25.315  0.00  0.00    +0.024 C 
ATOM     30  C   UNL     1      53.928 151.691  24.173  0.00  0.00    +0.022 C 
ATOM     31  C   UNL     1      54.300 152.643  23.247  0.00  0.00    +0.102 C 
ATOM     32  N   UNL     1      54.009 153.919  23.483  0.00  0.00    -0.209 NA
ATOM     33  C   UNL     1      52.890 151.145  26.245  0.00  0.00    +0.003 C 
ATOM     34  C   UNL     1      52.228 151.551  27.383  0.00  0.00    +0.021 C 
ATOM     35  C   UNL     1      51.979 152.899  27.523  0.00  0.00    +0.099 C 
ATOM     36  N   UNL     1      52.345 153.817  26.615  0.00  0.00    -0.239 NA
ENDBRANCH  26  27
ENDBRANCH  25  26
ENDBRANCH  23  25
ENDBRANCH  21  23
ENDBRANCH  20  21
ENDBRANCH  17  20
ENDBRANCH   2  17
BRANCH  11  37
ATOM     37  O   UNL     1      52.217 161.616  32.222  0.00  0.00    -0.505 OA
ATOM     38  H   UNL     1      52.874 161.233  31.674  0.00  0.00    +0.292 HD
ENDBRANCH  11  37
BRANCH   9  39
ATOM     39  O   UNL     1      47.699 162.061  33.614  0.00  0.00    -0.505 OA
ATOM     40  H   UNL     1      46.787 161.851  33.568  0.00  0.00    +0.292 HD
ENDBRANCH   9  39
TORSDOF 10
