REMARK  Name = =
REMARK  7 active torsions:
REMARK  status: ('A' for Active; 'I' for Inactive)
REMARK    1  A    between atoms: C_2  and  N_7
REMARK    2  A    between atoms: C_2  and  C_12
REMARK    3  A    between atoms: N_10  and  N_11
REMARK    4  A    between atoms: C_12  and  P_14
REMARK    5  A    between atoms: P_14  and  O_16
REMARK    6  A    between atoms: P_14  and  O_17
REMARK    7  A    between atoms: O_17  and  N_18
REMARK                            x       y       z     vdW  Elec       q    Type
REMARK                         _______ _______ _______ _____ _____    ______ ____
ROOT
ATOM      1  O   UNL     1      53.205 154.574  27.994  0.00  0.00    -0.316 OA
ATOM      2  C   UNL     1      52.634 155.861  28.002  0.00  0.00    +0.286 C 
ATOM      3  O   UNL     1      52.709 156.417  26.748  0.00  0.00    -0.316 OA
ATOM      4  C   UNL     1      53.120 155.533  25.785  0.00  0.00    +0.149 C 
ATOM      5  C   UNL     1      52.269 154.284  25.851  0.00  0.00    +0.064 C 
ATOM      6  C   UNL     1      52.306 153.773  27.273  0.00  0.00    +0.149 C 
ENDROOT
BRANCH   2   7
ATOM      7  N   UNL     1      53.323 156.723  28.950  0.00  0.00    -0.243 N 
ATOM      8  C   UNL     1      54.241 157.737  28.577  0.00  0.00    +0.317 C 
ATOM      9  O   UNL     1      54.470 157.898  27.357  0.00  0.00    -0.251 OA
ATOM     10  N   UNL     1      54.887 158.553  29.571  0.00  0.00    -0.237 N 
ATOM     11  H   UNL     1      53.141 156.594  29.909  0.00  0.00    +0.156 HD
ATOM     12  H   UNL     1      54.704 158.423  30.529  0.00  0.00    +0.170 HD
BRANCH  10  13
ATOM     13  N   UNL     1      55.780 159.534  29.139  0.00  0.00    -0.253 NA
ATOM     14  H   UNL     1      55.838 159.517  28.121  0.00  0.00    +0.141 HD
ATOM     15  H   UNL     1      56.702 159.352  29.535  0.00  0.00    +0.141 HD
ENDBRANCH  10  13
ENDBRANCH   2   7
BRANCH   2  16
ATOM     16  C   UNL     1      51.239 155.679  28.472  0.00  0.00    +0.129 C 
ATOM     17  C   UNL     1      50.414 154.891  27.829  0.00  0.00    +0.010 C 
BRANCH  16  18
ATOM     18  P   UNL     1      50.709 156.553  29.922  0.00  0.00    +0.381 P 
ATOM     19  O   UNL     1      50.897 155.725  31.188  0.00  0.00    -0.252 OA
BRANCH  18  20
ATOM     20  O   UNL     1      51.659 157.972  30.027  0.00  0.00    -0.320 OA
ATOM     21  H   UNL     1      52.598 157.731  30.062  0.00  0.00    +0.220 HD
ENDBRANCH  18  20
BRANCH  18  22
ATOM     22  O   UNL     1      49.068 156.962  29.861  0.00  0.00    -0.211 OA
BRANCH  22  23
ATOM     23  N   UNL     1      48.994 158.253  30.243  0.00  0.00    -0.149 NA
ATOM     24  C   UNL     1      47.960 158.990  29.589  0.00  0.00    +0.128 C 
ATOM     25  C   UNL     1      47.288 159.771  30.647  0.00  0.00    -0.010 C 
ATOM     26  C   UNL     1      47.807 159.451  31.828  0.00  0.00    -0.010 C 
ATOM     27  C   UNL     1      48.865 158.433  31.651  0.00  0.00    +0.128 C 
ENDBRANCH  22  23
ENDBRANCH  18  22
ENDBRANCH  16  18
ENDBRANCH   2  16
TORSDOF 7
