MODEL 1
REMARK VINA RESULT:    -7.851      0.000      0.000
REMARK INTER + INTRA:         -13.688
REMARK INTER:                 -13.359
REMARK INTRA:                  -0.329
REMARK UNBOUND:                -0.329
REMARK  Name = =
REMARK  14 active torsions:
REMARK  status: ('A' for Active; 'I' for Inactive)
REMARK    1  A    between atoms: C_1  and  N_12
REMARK    2  A    between atoms: C_1  and  C_41
REMARK    3  A    between atoms: C_8  and  N_23
REMARK    4  A    between atoms: C_8  and  C_35
REMARK    5  A    between atoms: N_13  and  N_18
REMARK    6  A    between atoms: N_18  and  P_19
REMARK    7  A    between atoms: P_19  and  N_21
REMARK    8  A    between atoms: P_19  and  N_22
REMARK    9  A    between atoms: C_25  and  C_32
REMARK   10  A    between atoms: C_27  and  C_29
REMARK   11  A    between atoms: C_29  and  O_31
REMARK   12  A    between atoms: C_32  and  O_34
REMARK   13  A    between atoms: C_42  and  C_46
REMARK   14  A    between atoms: C_46  and  C_47
REMARK                            x       y       z     vdW  Elec       q    Type
REMARK                         _______ _______ _______ _____ _____    ______ ____
ROOT
ATOM      1  C   UNL     1       3.114  -5.264  26.220  0.00  0.00    +0.126 C 
ATOM      2  C   UNL     1       2.700  -3.870  26.509  0.00  0.00    +0.029 C 
ATOM      3  C   UNL     1       3.765  -2.819  26.327  0.00  0.00    +0.002 C 
ATOM      4  C   UNL     1       3.149  -1.432  26.416  0.00  0.00    +0.000 C 
ATOM      5  C   UNL     1       2.589  -1.226  27.786  0.00  0.00    +0.000 C 
ATOM      6  C   UNL     1       2.550  -2.506  28.589  0.00  0.00    +0.002 C 
ATOM      7  C   UNL     1       2.088  -3.649  27.835  0.00  0.00    +0.025 C 
ATOM      8  C   UNL     1       0.911  -4.429  28.171  0.00  0.00    +0.097 C 
ATOM      9  C   UNL     1       0.756  -5.545  27.100  0.00  0.00    +0.048 C 
ATOM     10  C   UNL     1       2.124  -6.100  26.955  0.00  0.00    -0.020 C 
ATOM     11  C   UNL     1       2.426  -7.250  27.449  0.00  0.00    -0.007 C 
ENDROOT
BRANCH   1  12
ATOM     12  N   UNL     1       3.057  -5.705  24.863  0.00  0.00    -0.215 N 
ATOM     13  N   UNL     1       3.567  -5.281  23.732  0.00  0.00    -0.136 N 
ATOM     14  C   UNL     1       3.190  -6.044  22.700  0.00  0.00    +0.280 C 
ATOM     15  O   UNL     1       3.500  -5.919  21.461  0.00  0.00    -0.267 OA
ATOM     16  C   UNL     1       2.379  -7.032  23.208  0.00  0.00    +0.078 C 
ATOM     17  C   UNL     1       2.310  -6.802  24.559  0.00  0.00    +0.087 C 
BRANCH  13  18
ATOM     18  N   UNL     1       4.387  -4.162  23.623  0.00  0.00    -0.142 NA
ATOM     19  H   UNL     1       4.201  -3.581  24.440  0.00  0.00    +0.157 HD
BRANCH  18  20
ATOM     20  P   UNL     1       6.128  -4.355  23.525  0.00  0.00    +0.293 P 
ATOM     21  O   UNL     1       6.420  -5.830  23.359  0.00  0.00    -0.268 OA
BRANCH  20  22
ATOM     22  N   UNL     1       6.945  -3.765  24.955  0.00  0.00    -0.256 NA
ATOM     23  H   UNL     1       7.031  -2.750  24.903  0.00  0.00    +0.128 HD
ATOM     24  H   UNL     1       7.873  -4.183  25.013  0.00  0.00    +0.128 HD
ENDBRANCH  20  22
BRANCH  20  25
ATOM     25  N   UNL     1       6.820  -3.496  22.174  0.00  0.00    -0.256 NA
ATOM     26  H   UNL     1       7.422  -2.748  22.519  0.00  0.00    +0.128 HD
ATOM     27  H   UNL     1       6.072  -3.096  21.606  0.00  0.00    +0.128 HD
ENDBRANCH  20  25
ENDBRANCH  18  20
ENDBRANCH  13  18
ENDBRANCH   1  12
BRANCH   8  28
ATOM     28  N   UNL     1       0.965  -5.172  29.419  0.00  0.00    -0.300 N 
ATOM     29  C   UNL     1       0.123  -6.304  29.640  0.00  0.00    +0.124 C 
ATOM     30  C   UNL     1       0.128  -7.014  30.732  0.00  0.00    +0.073 C 
ATOM     31  C   UNL     1       1.043  -6.650  31.812  0.00  0.00    +0.012 C 
ATOM     32  C   UNL     1       1.895  -5.495  31.572  0.00  0.00    +0.090 C 
ATOM     33  C   UNL     1       1.857  -4.804  30.449  0.00  0.00    +0.068 C 
BRANCH  32  34
ATOM     34  C   UNL     1       2.826  -5.104  32.635  0.00  0.00    +0.339 C 
ATOM     35  O   UNL     1       2.642  -4.023  33.279  0.00  0.00    -0.245 OA
BRANCH  34  36
ATOM     36  O   UNL     1       3.924  -5.869  32.984  0.00  0.00    -0.477 OA
ATOM     37  H   UNL     1       4.640  -5.959  32.386  0.00  0.00    +0.295 HD
ENDBRANCH  34  36
ENDBRANCH  32  34
BRANCH  30  38
ATOM     38  C   UNL     1      -0.742  -8.173  30.943  0.00  0.00    +0.336 C 
ATOM     39  O   UNL     1      -1.311  -8.409  32.034  0.00  0.00    -0.245 OA
BRANCH  38  40
ATOM     40  O   UNL     1      -0.954  -9.053  29.897  0.00  0.00    -0.477 OA
ATOM     41  H   UNL     1      -1.567  -8.839  29.221  0.00  0.00    +0.295 HD
ENDBRANCH  38  40
ENDBRANCH  30  38
ENDBRANCH   8  28
BRANCH   8  42
ATOM     42  C   UNL     1      -0.310  -3.587  28.142  0.00  0.00    +0.079 C 
ATOM     43  N   UNL     1      -0.846  -3.273  26.960  0.00  0.00    -0.227 NA
ATOM     44  C   UNL     1      -1.940  -2.524  26.826  0.00  0.00    +0.199 C 
ATOM     45  N   UNL     1      -2.524  -2.067  27.943  0.00  0.00    -0.222 NA
ATOM     46  C   UNL     1      -2.040  -2.343  29.165  0.00  0.00    +0.102 C 
ATOM     47  C   UNL     1      -0.911  -3.117  29.284  0.00  0.00    +0.037 C 
ENDBRANCH   8  42
BRANCH   1  48
ATOM     48  C   UNL     1       4.483  -5.524  26.765  0.00  0.00    +0.088 C 
ATOM     49  C   UNL     1       5.276  -6.552  26.604  0.00  0.00    +0.021 C 
ATOM     50  C   UNL     1       6.527  -6.264  27.374  0.00  0.00    +0.117 C 
ATOM     51  N   UNL     1       6.299  -4.982  27.927  0.00  0.00    -0.158 NA
ATOM     52  N   UNL     1       5.184  -4.576  27.597  0.00  0.00    -0.120 NA
BRANCH  49  53
ATOM     53  C   UNL     1       5.085  -7.806  25.828  0.00  0.00    +0.093 C 
BRANCH  53  54
ATOM     54  C   UNL     1       5.754  -8.946  26.536  0.00  0.00    +0.156 C 
ATOM     55  O   UNL     1       6.802  -9.367  26.128  0.00  0.00    -0.296 OA
ATOM     56  C   UNL     1       5.135  -9.558  27.735  0.00  0.00    +0.073 C 
ENDBRANCH  53  54
ENDBRANCH  49  53
ENDBRANCH   1  48
TORSDOF 14
ENDMDL
