REMARK  Name = =
REMARK  1 active torsions:
REMARK  status: ('A' for Active; 'I' for Inactive)
REMARK    1  A    between atoms: C_1  and  S_7
REMARK                            x       y       z     vdW  Elec       q    Type
REMARK                         _______ _______ _______ _____ _____    ______ ____
ROOT
ATOM      1  C   UNL     1      -6.621  -0.259  31.812  0.00  0.00    +0.021 C 
ATOM      2  C   UNL     1      -5.545  -1.100  31.776  0.00  0.00    +0.006 C 
ATOM      3  C   UNL     1      -5.707  -2.424  32.097  0.00  0.00    +0.000 C 
ATOM      4  C   UNL     1      -6.942  -2.918  32.456  0.00  0.00    +0.000 C 
ATOM      5  C   UNL     1      -8.031  -2.086  32.496  0.00  0.00    +0.000 C 
ATOM      6  C   UNL     1      -7.842  -0.767  32.171  0.00  0.00    +0.006 C 
ENDROOT
BRANCH   1   7
ATOM      7  S   UNL     1      -6.395   1.476  31.389  0.00  0.00    -0.141 S 
ATOM      8  H   UNL     1      -7.585   2.126  31.490  0.00  0.00    +0.107 HD
ENDBRANCH   1   7
TORSDOF 1
