REMARK  Name = =
REMARK  0 active torsions:
REMARK  status: ('A' for Active; 'I' for Inactive)
REMARK                            x       y       z     vdW  Elec       q    Type
REMARK                         _______ _______ _______ _____ _____    ______ ____
ROOT
ATOM      1  O   UNL     1      -4.427  -4.537  30.936  0.00  0.00    -0.440 OA
ATOM      2  C   UNL     1      -5.028  -3.670  31.835  0.00  0.00    +0.235 C 
ATOM      3  C   UNL     1      -4.639  -2.321  31.414  0.00  0.00    +0.027 C 
ATOM      4  C   UNL     1      -3.872  -2.428  30.351  0.00  0.00    +0.081 C 
ATOM      5  C   UNL     1      -3.706  -3.834  30.005  0.00  0.00    +0.342 C 
ATOM      6  O   UNL     1      -3.022  -4.296  29.027  0.00  0.00    -0.245 OA
ENDROOT
TORSDOF 0
