REMARK  Name = =
REMARK  3 active torsions:
REMARK  status: ('A' for Active; 'I' for Inactive)
REMARK    1  A    between atoms: N_1  and  C_8
REMARK    2  A    between atoms: C_5  and  O_14
REMARK    3  A    between atoms: C_7  and  S_13
REMARK                            x       y       z     vdW  Elec       q    Type
REMARK                         _______ _______ _______ _____ _____    ______ ____
ROOT
ATOM      1  N   UNL     1      -5.481  -2.427  32.375  0.00  0.00    -0.158 N 
ATOM      2  C   UNL     1      -4.392  -2.371  31.480  0.00  0.00    +0.313 C 
ATOM      3  O   UNL     1      -3.312  -2.907  31.791  0.00  0.00    -0.252 OA
ATOM      4  N   UNL     1      -4.513  -1.717  30.235  0.00  0.00    -0.313 N 
ATOM      5  C   UNL     1      -5.328  -3.093  33.617  0.00  0.00    +0.413 C 
ATOM      6  O   UNL     1      -4.241  -3.632  33.927  0.00  0.00    -0.226 OA
ATOM      7  H   UNL     1      -3.746  -1.685  29.619  0.00  0.00    +0.147 HD
ATOM      8  H   UNL     1      -5.365  -1.293  29.982  0.00  0.00    +0.147 HD
ENDROOT
BRANCH   1  10
ATOM      9  C   UNL     1      -6.906  -0.449  32.085  0.00  0.00    +0.036 C 
ATOM     10  C   UNL     1      -6.754  -1.821  32.059  0.00  0.00    +0.071 C 
ATOM     11  C   UNL     1      -7.834  -2.613  31.729  0.00  0.00    +0.016 C 
ATOM     12  C   UNL     1      -9.061  -2.061  31.423  0.00  0.00    +0.001 C 
ATOM     13  C   UNL     1      -9.230  -0.695  31.444  0.00  0.00    +0.001 C 
ATOM     14  C   UNL     1      -8.134   0.085  31.778  0.00  0.00    +0.007 C 
BRANCH   9  15
ATOM     15  S   UNL     1      -5.548   0.632  32.505  0.00  0.00    -0.140 S 
ATOM     16  H   UNL     1      -4.441  -0.112  32.769  0.00  0.00    +0.107 HD
ENDBRANCH   9  15
ENDBRANCH   1  10
BRANCH   5  17
ATOM     17  O   UNL     1      -6.383  -3.154  34.496  0.00  0.00    -0.466 OA
ATOM     18  H   UNL     1      -7.201  -2.754  34.275  0.00  0.00    +0.297 HD
ENDBRANCH   5  17
TORSDOF 3
