REMARK  Name = =
REMARK  5 active torsions:
REMARK  status: ('A' for Active; 'I' for Inactive)
REMARK    1  A    between atoms: S_1  and  N_2
REMARK    2  A    between atoms: S_1  and  C_16
REMARK    3  A    between atoms: C_12  and  O_15
REMARK    4  A    between atoms: C_17  and  N_22
REMARK    5  A    between atoms: C_26  and  O_28
REMARK                            x       y       z     vdW  Elec       q    Type
REMARK                         _______ _______ _______ _____ _____    ______ ____
ROOT
ATOM      1  S   UNL     1      -2.822  -5.453  20.161  0.00  0.00    -0.019 S 
ENDROOT
BRANCH   1   2
ATOM      2  N   UNL     1      -1.639  -6.211  19.155  0.00  0.00    -0.259 N 
ATOM      3  C   UNL     1      -1.120  -5.363  18.157  0.00  0.00    +0.067 C 
ATOM      4  C   UNL     1       0.161  -5.780  17.523  0.00  0.00    -0.005 C 
ATOM      5  C   UNL     1       0.635  -7.159  17.764  0.00  0.00    +0.047 C 
ATOM      6  C   UNL     1      -0.313  -8.034  18.572  0.00  0.00    +0.030 C 
ATOM      7  C   UNL     1      -0.748  -7.136  19.750  0.00  0.00    +0.089 C 
ATOM      8  C   UNL     1       0.411  -6.481  20.403  0.00  0.00    +0.047 C 
ATOM      9  C   UNL     1       1.749  -6.865  19.904  0.00  0.00    -0.024 C 
ATOM     10  C   UNL     1       1.888  -7.190  18.570  0.00  0.00    -0.019 C 
ATOM     11  C   UNL     1       3.118  -7.537  18.087  0.00  0.00    +0.032 C 
ATOM     12  C   UNL     1       4.242  -7.570  18.912  0.00  0.00    +0.133 C 
ATOM     13  C   UNL     1       4.098  -7.243  20.255  0.00  0.00    +0.036 C 
ATOM     14  C   UNL     1       2.862  -6.892  20.753  0.00  0.00    -0.001 C 
BRANCH  12  15
ATOM     15  O   UNL     1       5.503  -7.914  18.463  0.00  0.00    -0.506 OA
ATOM     16  H   UNL     1       5.634  -8.140  17.563  0.00  0.00    +0.292 HD
ENDBRANCH  12  15
ENDBRANCH   1   2
BRANCH   1  17
ATOM     17  C   UNL     1      -3.391  -3.975  19.295  0.00  0.00    +0.058 C 
ATOM     18  C   UNL     1      -3.208  -2.748  19.886  0.00  0.00    +0.072 C 
ATOM     19  C   UNL     1      -3.671  -1.650  19.132  0.00  0.00    +0.016 C 
ATOM     20  C   UNL     1      -4.259  -1.760  17.908  0.00  0.00    +0.001 C 
ATOM     21  C   UNL     1      -4.415  -3.040  17.368  0.00  0.00    +0.001 C 
ATOM     22  C   UNL     1      -3.989  -4.140  18.045  0.00  0.00    +0.009 C 
BRANCH  18  23
ATOM     23  N   UNL     1      -2.587  -2.524  21.133  0.00  0.00    -0.158 N 
ATOM     24  C   UNL     1      -1.149  -2.363  21.154  0.00  0.00    +0.313 C 
ATOM     25  O   UNL     1      -0.491  -2.156  22.163  0.00  0.00    -0.252 OA
ATOM     26  N   UNL     1      -0.485  -2.458  19.879  0.00  0.00    -0.313 N 
ATOM     27  C   UNL     1      -3.273  -2.435  22.333  0.00  0.00    +0.413 C 
ATOM     28  O   UNL     1      -4.528  -2.548  22.369  0.00  0.00    -0.226 OA
ATOM     29  H   UNL     1      -1.009  -2.625  19.062  0.00  0.00    +0.147 HD
ATOM     30  H   UNL     1       0.493  -2.356  19.824  0.00  0.00    +0.147 HD
BRANCH  27  31
ATOM     31  O   UNL     1      -2.634  -2.220  23.533  0.00  0.00    -0.466 OA
ATOM     32  H   UNL     1      -1.702  -2.129  23.558  0.00  0.00    +0.297 HD
ENDBRANCH  27  31
ENDBRANCH  18  23
ENDBRANCH   1  17
TORSDOF 5
