REMARK  Name = =
REMARK  6 active torsions:
REMARK  status: ('A' for Active; 'I' for Inactive)
REMARK    1  A    between atoms: C_1  and  S_20
REMARK    2  A    between atoms: C_2  and  N_7
REMARK    3  A    between atoms: C_5  and  C_14
REMARK    4  A    between atoms: C_11  and  O_13
REMARK    5  A    between atoms: S_20  and  N_21
REMARK    6  A    between atoms: C_31  and  O_34
REMARK                            x       y       z     vdW  Elec       q    Type
REMARK                         _______ _______ _______ _____ _____    ______ ____
ROOT
ATOM      1  C   UNL     1      -1.290  -1.263  19.762  0.00  0.00    +0.054 C 
ATOM      2  C   UNL     1      -2.194  -1.441  18.741  0.00  0.00    +0.072 C 
ATOM      3  C   UNL     1      -2.219  -0.473  17.752  0.00  0.00    +0.016 C 
ATOM      4  C   UNL     1      -1.378   0.616  17.789  0.00  0.00    +0.001 C 
ATOM      5  C   UNL     1      -0.448   0.819  18.819  0.00  0.00    -0.004 C 
ATOM      6  C   UNL     1      -0.444  -0.157  19.789  0.00  0.00    +0.008 C 
ENDROOT
BRANCH   2   7
ATOM      7  N   UNL     1      -3.071  -2.567  18.696  0.00  0.00    -0.158 N 
ATOM      8  C   UNL     1      -2.642  -3.725  18.017  0.00  0.00    +0.313 C 
ATOM      9  O   UNL     1      -3.421  -4.720  17.979  0.00  0.00    -0.252 OA
ATOM     10  N   UNL     1      -1.387  -3.843  17.371  0.00  0.00    -0.313 N 
ATOM     11  C   UNL     1      -4.328  -2.524  19.312  0.00  0.00    +0.413 C 
ATOM     12  O   UNL     1      -4.707  -1.497  19.912  0.00  0.00    -0.226 OA
ATOM     13  H   UNL     1      -0.755  -3.088  17.381  0.00  0.00    +0.147 HD
ATOM     14  H   UNL     1      -1.146  -4.680  16.912  0.00  0.00    +0.147 HD
BRANCH  11  15
ATOM     15  O   UNL     1      -5.171  -3.613  19.264  0.00  0.00    -0.466 OA
ATOM     16  H   UNL     1      -4.904  -4.393  18.818  0.00  0.00    +0.297 HD
ENDBRANCH  11  15
ENDBRANCH   2   7
BRANCH   5  17
ATOM     17  C   UNL     1       0.421   1.986  18.821  0.00  0.00    -0.026 C 
ATOM     18  C   UNL     1       0.655   2.691  19.905  0.00  0.00    -0.030 C 
ATOM     19  C   UNL     1       1.527   3.889  19.986  0.00  0.00    +0.026 C 
ATOM     20  C   UNL     1       2.467   3.966  18.831  0.00  0.00    +0.005 C 
ATOM     21  C   UNL     1       1.793   3.635  17.521  0.00  0.00    +0.005 C 
ATOM     22  C   UNL     1       1.052   2.362  17.524  0.00  0.00    +0.026 C 
ENDBRANCH   5  17
BRANCH   1  23
ATOM     23  S   UNL     1      -1.221  -2.482  21.061  0.00  0.00    -0.037 S 
BRANCH  23  24
ATOM     24  N   UNL     1       0.461  -2.868  21.502  0.00  0.00    -0.225 NA
ATOM     25  C   UNL     1       0.798  -1.962  22.583  0.00  0.00    +0.084 C 
ATOM     26  C   UNL     1       2.200  -2.106  23.077  0.00  0.00    +0.023 C 
ATOM     27  C   UNL     1       3.149  -2.433  21.919  0.00  0.00    +0.025 C 
ATOM     28  C   UNL     1       2.544  -1.852  20.685  0.00  0.00    +0.022 C 
ATOM     29  C   UNL     1       1.304  -2.690  20.363  0.00  0.00    +0.073 C 
ATOM     30  C   UNL     1       1.836  -3.980  19.781  0.00  0.00    +0.043 C 
ATOM     31  C   UNL     1       2.707  -4.642  20.791  0.00  0.00    -0.025 C 
ATOM     32  C   UNL     1       3.309  -3.904  21.779  0.00  0.00    -0.023 C 
ATOM     33  C   UNL     1       4.108  -4.590  22.688  0.00  0.00    +0.032 C 
ATOM     34  C   UNL     1       4.309  -5.951  22.630  0.00  0.00    +0.133 C 
ATOM     35  C   UNL     1       3.682  -6.650  21.618  0.00  0.00    +0.036 C 
ATOM     36  C   UNL     1       2.882  -6.014  20.696  0.00  0.00    -0.001 C 
BRANCH  34  37
ATOM     37  O   UNL     1       5.100  -6.632  23.530  0.00  0.00    -0.506 OA
ATOM     38  H   UNL     1       5.530  -6.168  24.221  0.00  0.00    +0.292 HD
ENDBRANCH  34  37
ENDBRANCH  23  24
ENDBRANCH   1  23
TORSDOF 6
