REMARK  Name = =
REMARK  5 active torsions:
REMARK  status: ('A' for Active; 'I' for Inactive)
REMARK    1  A    between atoms: P_1  and  C_12
REMARK    2  A    between atoms: P_1  and  O_22
REMARK    3  A    between atoms: C_9  and  O_23
REMARK    4  A    between atoms: C_12  and  C_17
REMARK    5  A    between atoms: O_23  and  C_24
REMARK                            x       y       z     vdW  Elec       q    Type
REMARK                         _______ _______ _______ _____ _____    ______ ____
ROOT
ATOM      1  P   UNL     1      -9.909  -0.374  29.735  0.00  0.00    +0.360 P 
ATOM      2  O   UNL     1      -9.697  -1.714  29.103  0.00  0.00    -0.135 OA
ATOM      3  O   UNL     1     -11.365   0.402  29.653  0.00  0.00    -0.288 OA
ATOM      4  C   UNL     1     -12.275  -0.513  29.124  0.00  0.00    +0.160 C 
ATOM      5  C   UNL     1     -12.780  -1.273  30.336  0.00  0.00    +0.213 C 
ATOM      6  O   UNL     1     -13.438  -0.301  31.043  0.00  0.00    -0.347 OA
ATOM      7  C   UNL     1     -14.032   0.580  30.185  0.00  0.00    +0.145 C 
ATOM      8  C   UNL     1     -13.524   0.279  28.789  0.00  0.00    +0.065 C 
ATOM      9  C   UNL     1     -11.602  -1.747  31.112  0.00  0.00    +0.328 C 
ATOM     10  O   UNL     1     -10.421  -1.142  30.939  0.00  0.00    -0.249 OA
ENDROOT
BRANCH   1  12
ATOM     11  O   UNL     1      -8.986   1.190  31.707  0.00  0.00    -0.426 OA
ATOM     12  C   UNL     1      -8.595   0.395  30.601  0.00  0.00    +0.318 C 
ATOM     13  C   UNL     1      -7.766   1.365  29.837  0.00  0.00    +0.041 C 
ATOM     14  C   UNL     1      -7.710   2.536  30.440  0.00  0.00    +0.082 C 
ATOM     15  C   UNL     1      -8.496   2.456  31.665  0.00  0.00    +0.342 C 
ATOM     16  O   UNL     1      -8.689   3.377  32.521  0.00  0.00    -0.245 OA
BRANCH  12  17
ATOM     17  C   UNL     1      -7.739  -0.682  31.188  0.00  0.00    +0.279 C 
ATOM     18  O   UNL     1      -6.687  -0.534  31.956  0.00  0.00    -0.412 OA
ATOM     19  C   UNL     1      -6.191  -1.679  32.281  0.00  0.00    +0.306 C 
ATOM     20  N   UNL     1      -6.955  -2.613  31.697  0.00  0.00    -0.102 NA
ATOM     21  N   UNL     1      -7.902  -1.998  31.029  0.00  0.00    -0.107 NA
ENDBRANCH  12  17
ENDBRANCH   1  12
BRANCH   1  22
ATOM     22  O   UNL     1      -9.589   0.188  28.324  0.00  0.00    -0.318 OA
ATOM     23  H   UNL     1      -8.710  -0.114  28.048  0.00  0.00    +0.221 HD
ENDBRANCH   1  22
BRANCH   9  24
ATOM     24  O   UNL     1     -11.920  -1.544  32.501  0.00  0.00    -0.407 OA
BRANCH  24  25
ATOM     25  C   UNL     1     -12.046  -2.549  33.407  0.00  0.00    +0.400 C 
ATOM     26  O   UNL     1     -11.858  -3.732  33.032  0.00  0.00    -0.227 OA
ATOM     27  N   UNL     1     -12.391  -2.226  34.763  0.00  0.00    -0.295 N 
ATOM     28  H   UNL     1     -12.532  -1.287  35.025  0.00  0.00    +0.148 HD
ATOM     29  H   UNL     1     -12.487  -2.943  35.431  0.00  0.00    +0.148 HD
ENDBRANCH  24  25
ENDBRANCH   9  24
TORSDOF 5
