REMARK  Name = =
REMARK  7 active torsions:
REMARK  status: ('A' for Active; 'I' for Inactive)
REMARK    1  A    between atoms: N_1  and  C_12
REMARK    2  A    between atoms: C_2  and  O_31
REMARK    3  A    between atoms: N_5  and  C_23
REMARK    4  A    between atoms: C_13  and  C_16
REMARK    5  A    between atoms: O_31  and  C_32
REMARK    6  A    between atoms: C_32  and  C_34
REMARK    7  A    between atoms: C_37  and  O_40
REMARK                            x       y       z     vdW  Elec       q    Type
REMARK                         _______ _______ _______ _____ _____    ______ ____
ROOT
ATOM      1  N   UNL     1       3.196  -6.273  27.900  0.00  0.00    -0.187 N 
ATOM      2  C   UNL     1       3.498  -5.361  26.866  0.00  0.00    +0.334 C 
ATOM      3  C   UNL     1       4.333  -6.094  25.848  0.00  0.00    +0.298 C 
ATOM      4  O   UNL     1       4.599  -5.627  24.725  0.00  0.00    -0.268 OA
ATOM      5  N   UNL     1       4.703  -7.320  26.432  0.00  0.00    -0.187 N 
ATOM      6  C   UNL     1       4.011  -7.437  27.668  0.00  0.00    +0.325 C 
ATOM      7  O   UNL     1       4.060  -8.399  28.493  0.00  0.00    -0.251 OA
ENDROOT
BRANCH   1  12
ATOM      8  N   UNL     1       0.952  -5.888  31.354  0.00  0.00    -0.275 N 
ATOM      9  C   UNL     1       2.061  -5.202  31.181  0.00  0.00    +0.328 A 
ATOM     10  O   UNL     1       2.479  -4.424  32.085  0.00  0.00    -0.247 OA
ATOM     11  N   UNL     1       2.745  -5.327  30.047  0.00  0.00    -0.295 N 
ATOM     12  C   UNL     1       2.356  -6.148  29.023  0.00  0.00    +0.126 A 
ATOM     13  C   UNL     1       1.220  -6.860  29.178  0.00  0.00    +0.095 A 
ATOM     14  C   UNL     1       0.526  -6.696  30.399  0.00  0.00    +0.262 A 
ATOM     15  O   UNL     1      -0.547  -7.348  30.585  0.00  0.00    -0.267 OA
ATOM     16  H   UNL     1       0.442  -5.800  32.191  0.00  0.00    +0.173 HD
ATOM     17  H   UNL     1       3.572  -4.803  29.939  0.00  0.00    +0.172 HD
BRANCH  13  18
ATOM     18  C   UNL     1       0.583  -7.723  28.191  0.00  0.00    +0.168 C 
ATOM     19  O   UNL     1       1.257  -7.711  26.955  0.00  0.00    -0.331 OA
ATOM     20  C   UNL     1       0.971  -8.922  26.302  0.00  0.00    +0.211 C 
ATOM     21  N   UNL     1       1.711 -10.002  26.977  0.00  0.00    -0.100 NA
ATOM     22  C   UNL     1      -0.471  -9.273  26.335  0.00  0.00    +0.075 C 
ATOM     23  C   UNL     1      -1.366  -8.242  26.914  0.00  0.00    -0.024 C 
ATOM     24  C   UNL     1      -0.827  -7.448  27.868  0.00  0.00    +0.003 C 
ENDBRANCH  13  18
ENDBRANCH   1  12
BRANCH   5  25
ATOM     25  C   UNL     1       5.667  -8.244  25.875  0.00  0.00    +0.063 C 
ATOM     26  C   UNL     1       5.290  -9.379  25.217  0.00  0.00    +0.028 C 
ATOM     27  C   UNL     1       6.207 -10.258  24.629  0.00  0.00    +0.069 C 
ATOM     28  C   UNL     1       7.550  -9.998  24.699  0.00  0.00    +0.068 C 
ATOM     29  C   UNL     1       7.962  -8.866  25.357  0.00  0.00    +0.014 C 
ATOM     30  C   UNL     1       7.033  -7.995  25.941  0.00  0.00    +0.016 C 
ATOM     31 CL   UNL     1       8.680 -11.110  23.944  0.00  0.00    -0.081 Cl
ATOM     32 CL   UNL     1       5.627 -11.693  23.795  0.00  0.00    -0.081 Cl
ENDBRANCH   5  25
BRANCH   2  33
ATOM     33  O   UNL     1       4.316  -4.262  27.348  0.00  0.00    -0.420 OA
BRANCH  33  34
ATOM     34  C   UNL     1       3.986  -2.953  27.222  0.00  0.00    +0.343 C 
ATOM     35  O   UNL     1       4.945  -2.111  27.103  0.00  0.00    -0.245 OA
BRANCH  34  36
ATOM     36  C   UNL     1       2.641  -2.422  27.213  0.00  0.00    +0.076 C 
ATOM     37  C   UNL     1       2.017  -2.008  26.038  0.00  0.00    +0.010 C 
ATOM     38  C   UNL     1       0.721  -1.503  26.069  0.00  0.00    +0.037 C 
ATOM     39  C   UNL     1       0.039  -1.408  27.270  0.00  0.00    +0.134 C 
ATOM     40  C   UNL     1       0.634  -1.809  28.427  0.00  0.00    +0.037 C 
ATOM     41  C   UNL     1       1.922  -2.307  28.372  0.00  0.00    +0.010 C 
BRANCH  39  42
ATOM     42  O   UNL     1      -1.257  -0.910  27.328  0.00  0.00    -0.506 OA
ATOM     43  H   UNL     1      -1.686  -0.628  26.544  0.00  0.00    +0.292 HD
ENDBRANCH  39  42
ENDBRANCH  34  36
ENDBRANCH  33  34
ENDBRANCH   2  33
TORSDOF 7
