REMARK  Name = =
REMARK  0 active torsions:
REMARK  status: ('A' for Active; 'I' for Inactive)
REMARK                            x       y       z     vdW  Elec       q    Type
REMARK                         _______ _______ _______ _____ _____    ______ ____
ROOT
ATOM      1  C   UNL     1      -3.236  -4.145  31.086  0.00  0.00    +0.058 C 
ATOM      2  C   UNL     1      -3.038  -5.494  31.352  0.00  0.00    +0.058 C 
ATOM      3  C   UNL     1      -2.130  -5.979  30.310  0.00  0.00    +0.252 C 
ATOM      4  O   UNL     1      -1.726  -7.176  30.237  0.00  0.00    -0.270 OA
ATOM      5  N   UNL     1      -1.807  -4.901  29.445  0.00  0.00    -0.248 N 
ATOM      6  C   UNL     1      -2.482  -3.746  29.905  0.00  0.00    +0.252 C 
ATOM      7  O   UNL     1      -2.399  -2.622  29.346  0.00  0.00    -0.270 OA
ATOM      8  C   UNL     1      -3.661  -6.095  32.433  0.00  0.00    +0.005 C 
ATOM      9  C   UNL     1      -4.489  -5.384  33.277  0.00  0.00    +0.000 C 
ATOM     10  C   UNL     1      -4.676  -4.047  33.002  0.00  0.00    +0.000 C 
ATOM     11  C   UNL     1      -4.067  -3.423  31.928  0.00  0.00    +0.005 C 
ATOM     12  H   UNL     1      -1.215  -4.949  28.660  0.00  0.00    +0.158 HD
ENDROOT
TORSDOF 0
