MODEL 1
REMARK VINA RESULT:    -7.502      0.000      0.000
REMARK INTER + INTRA:          -9.839
REMARK INTER:                  -9.256
REMARK INTRA:                  -0.583
REMARK UNBOUND:                -0.583
REMARK  Name = =
REMARK  4 active torsions:
REMARK  status: ('A' for Active; 'I' for Inactive)
REMARK    1  A    between atoms: C_1  and  C_19
REMARK    2  A    between atoms: C_1  and  N_36
REMARK    3  A    between atoms: C_9  and  C_42
REMARK    4  A    between atoms: N_43  and  N_44
REMARK                            x       y       z     vdW  Elec       q    Type
REMARK                         _______ _______ _______ _____ _____    ______ ____
ROOT
ATOM      1  C   UNL     1      62.280 164.947  37.375  0.00  0.00    +0.050 C 
ATOM      2  C   UNL     1      62.150 164.716  38.874  0.00  0.00    +0.015 C 
ATOM      3  C   UNL     1      60.740 165.076  39.370  0.00  0.00    +0.001 C 
ATOM      4  C   UNL     1      60.625 164.385  40.747  0.00  0.00    +0.001 C 
ATOM      5  C   UNL     1      59.781 163.137  40.658  0.00  0.00    +0.012 C 
ATOM      6  C   UNL     1      58.999 163.009  41.909  0.00  0.00    +0.061 C 
ATOM      7  C   UNL     1      59.596 162.183  42.970  0.00  0.00    +0.118 C 
ATOM      8  O   UNL     1      58.467 161.408  43.011  0.00  0.00    -0.352 OA
ATOM      9  C   UNL     1      57.833 162.103  41.955  0.00  0.00    +0.160 C 
ATOM     10  C   UNL     1      60.893 161.558  42.699  0.00  0.00    +0.030 C 
ATOM     11  C   UNL     1      61.147 161.122  41.295  0.00  0.00    +0.010 C 
ATOM     12  C   UNL     1      60.579 161.984  40.254  0.00  0.00    +0.058 C 
ATOM     13  C   UNL     1      60.304 161.381  38.967  0.00  0.00    +0.150 C 
ATOM     14  O   UNL     1      60.142 160.188  38.903  0.00  0.00    -0.296 OA
ATOM     15  C   UNL     1      60.167 161.976  37.571  0.00  0.00    +0.065 C 
ATOM     16  C   UNL     1      60.351 163.448  37.665  0.00  0.00    +0.009 C 
ATOM     17  C   UNL     1      61.349 163.828  36.901  0.00  0.00    +0.015 C 
ATOM     18  C   UNL     1      59.659 164.486  38.478  0.00  0.00    +0.001 C 
ENDROOT
BRANCH   1  19
ATOM     19  C   UNL     1      61.785 166.252  36.973  0.00  0.00    +0.046 C 
ATOM     20  C   UNL     1      62.548 167.432  37.542  0.00  0.00    -0.021 C 
ATOM     21  C   UNL     1      62.129 168.700  37.147  0.00  0.00    -0.023 C 
ATOM     22  C   UNL     1      60.995 168.953  36.211  0.00  0.00    +0.030 C 
ATOM     23  C   UNL     1      60.321 167.713  35.778  0.00  0.00    +0.059 C 
ATOM     24  C   UNL     1      61.454 166.671  35.650  0.00  0.00    +0.108 C 
ATOM     25  C   UNL     1      61.259 165.992  34.461  0.00  0.00    +0.317 C 
ATOM     26  O   UNL     1      61.968 165.243  33.770  0.00  0.00    -0.250 OA
ATOM     27  O   UNL     1      59.937 166.298  34.045  0.00  0.00    -0.448 OA
ATOM     28  C   UNL     1      59.678 167.659  34.465  0.00  0.00    +0.209 C 
ATOM     29  C   UNL     1      62.766 169.832  37.615  0.00  0.00    +0.036 C 
ATOM     30  C   UNL     1      63.818 169.742  38.471  0.00  0.00    +0.176 C 
ATOM     31  C   UNL     1      64.236 168.506  38.861  0.00  0.00    +0.176 C 
ATOM     32  C   UNL     1      63.589 167.371  38.386  0.00  0.00    +0.036 C 
ATOM     33  O   UNL     1      65.308 168.716  39.721  0.00  0.00    -0.435 OA
ATOM     34  C   UNL     1      65.709 170.073  39.698  0.00  0.00    +0.429 C 
ATOM     35  O   UNL     1      64.618 170.714  39.076  0.00  0.00    -0.435 OA
ENDBRANCH   1  19
BRANCH   1  36
ATOM     36  N   UNL     1      63.574 164.552  36.927  0.00  0.00    -0.275 NA
ATOM     37  C   UNL     1      64.168 165.384  35.957  0.00  0.00    +0.072 C 
ATOM     38  C   UNL     1      65.584 164.848  35.686  0.00  0.00    +0.017 C 
ATOM     39  C   UNL     1      66.386 165.159  36.929  0.00  0.00    +0.003 C 
ATOM     40  C   UNL     1      65.738 164.476  38.089  0.00  0.00    +0.017 C 
ATOM     41  C   UNL     1      64.416 163.820  37.763  0.00  0.00    +0.072 C 
ENDBRANCH   1  36
BRANCH   9  42
ATOM     42  C   UNL     1      57.589 161.205  40.831  0.00  0.00    +0.121 C 
ATOM     43  N   UNL     1      56.520 160.446  40.819  0.00  0.00    -0.179 NA
BRANCH  43  44
ATOM     44  N   UNL     1      55.610 160.484  41.868  0.00  0.00    -0.191 N 
ATOM     45  C   UNL     1      54.493 161.324  41.932  0.00  0.00    +0.317 C 
ATOM     46  O   UNL     1      54.263 162.119  40.985  0.00  0.00    -0.251 OA
ATOM     47  N   UNL     1      53.597 161.317  43.034  0.00  0.00    -0.312 N 
ATOM     48  H   UNL     1      55.763 159.873  42.625  0.00  0.00    +0.179 HD
ATOM     49  H   UNL     1      52.822 161.923  43.043  0.00  0.00    +0.147 HD
ATOM     50  H   UNL     1      53.753 160.705  43.790  0.00  0.00    +0.147 HD
ENDBRANCH  43  44
ENDBRANCH   9  42
TORSDOF 4
ENDMDL
