MODEL 1
REMARK VINA RESULT:    -8.208      0.000      0.000
REMARK INTER + INTRA:          -8.788
REMARK INTER:                 -10.127
REMARK INTRA:                   1.339
REMARK UNBOUND:                 1.339
REMARK  Name = =
REMARK  4 active torsions:
REMARK  status: ('A' for Active; 'I' for Inactive)
REMARK    1  A    between atoms: C_1  and  C_9
REMARK    2  A    between atoms: C_1  and  C_31
REMARK    3  A    between atoms: C_27  and  O_35
REMARK    4  A    between atoms: C_30  and  C_33
REMARK                            x       y       z     vdW  Elec       q    Type
REMARK                         _______ _______ _______ _____ _____    ______ ____
ROOT
ATOM      1  C   UNL     1      60.592 160.820  40.803  0.00  0.00    +0.107 C 
ATOM      2  C   UNL     1      61.626 161.878  41.042  0.00  0.00    +0.235 C 
ATOM      3  O   UNL     1      61.580 162.978  40.431  0.00  0.00    -0.274 OA
ATOM      4  N   UNL     1      62.679 161.639  41.973  0.00  0.00    -0.251 N 
ATOM      5  C   UNL     1      63.043 160.313  42.210  0.00  0.00    +0.251 C 
ATOM      6  O   UNL     1      64.080 160.060  42.879  0.00  0.00    -0.270 OA
ATOM      7  C   UNL     1      62.281 159.166  41.719  0.00  0.00    +0.054 C 
ATOM      8  C   UNL     1      61.108 159.421  40.850  0.00  0.00    -0.009 C 
ATOM      9  H   UNL     1      63.133 162.382  42.432  0.00  0.00    +0.158 HD
ENDROOT
BRANCH   1  10
ATOM     10  C   UNL     1      59.649 160.973  41.967  0.00  0.00    +0.016 C 
ATOM     11  C   UNL     1      58.482 161.829  41.513  0.00  0.00    +0.001 C 
ATOM     12  C   UNL     1      57.312 160.917  41.366  0.00  0.00    +0.000 C 
ATOM     13  C   UNL     1      55.987 161.533  41.326  0.00  0.00    +0.000 C 
ATOM     14  C   UNL     1      56.034 163.039  41.440  0.00  0.00    +0.000 C 
ATOM     15  C   UNL     1      54.669 163.658  41.432  0.00  0.00    +0.001 C 
ATOM     16  C   UNL     1      53.562 162.692  41.167  0.00  0.00    +0.007 C 
ATOM     17  C   UNL     1      53.644 161.587  42.200  0.00  0.00    +0.000 C 
ATOM     18  C   UNL     1      54.980 160.919  42.261  0.00  0.00    +0.000 C 
ATOM     19  C   UNL     1      52.236 163.406  41.434  0.00  0.00    +0.064 C 
ATOM     20  C   UNL     1      52.191 164.706  40.750  0.00  0.00    +0.151 C 
ATOM     21  O   UNL     1      51.231 165.432  40.924  0.00  0.00    -0.296 OA
ATOM     22  C   UNL     1      53.314 165.092  39.871  0.00  0.00    +0.065 C 
ATOM     23  C   UNL     1      54.652 164.844  40.496  0.00  0.00    +0.008 C 
ATOM     24  C   UNL     1      56.825 163.338  42.692  0.00  0.00    +0.000 C 
ATOM     25  C   UNL     1      58.247 162.998  42.417  0.00  0.00    +0.000 C 
ATOM     26  C   UNL     1      57.536 159.761  42.255  0.00  0.00    +0.000 C 
ATOM     27  C   UNL     1      59.019 159.818  42.560  0.00  0.00    +0.001 C 
ENDBRANCH   1  10
BRANCH   1  32
ATOM     28  C   UNL     1      59.576 162.765  37.829  0.00  0.00    +0.154 C 
ATOM     29  C   UNL     1      58.928 161.816  37.076  0.00  0.00    +0.038 C 
ATOM     30  C   UNL     1      58.816 160.518  37.525  0.00  0.00    +0.006 C 
ATOM     31  C   UNL     1      59.372 160.145  38.772  0.00  0.00    +0.039 C 
ATOM     32  C   UNL     1      60.010 161.107  39.499  0.00  0.00    -0.005 C 
ATOM     33  C   UNL     1      60.118 162.427  39.034  0.00  0.00    +0.035 C 
BRANCH  31  34
ATOM     34  C   UNL     1      59.179 158.757  39.120  0.00  0.00    +0.234 C 
ATOM     35  O   UNL     1      59.019 157.754  38.422  0.00  0.00    -0.283 OA
ENDBRANCH  31  34
BRANCH  28  36
ATOM     36  O   UNL     1      59.708 164.087  37.410  0.00  0.00    -0.416 OA
ATOM     37 BR   UNL     1      59.601 164.534  35.596  0.00  0.00    +0.179 Br
ENDBRANCH  28  36
ENDBRANCH   1  32
TORSDOF 4
ENDMDL
