REMARK  Name = =
REMARK  4 active torsions:
REMARK  status: ('A' for Active; 'I' for Inactive)
REMARK    1  A    between atoms: C_1  and  C_9
REMARK    2  A    between atoms: C_1  and  C_31
REMARK    3  A    between atoms: C_27  and  O_35
REMARK    4  A    between atoms: C_30  and  C_33
REMARK                            x       y       z     vdW  Elec       q    Type
REMARK                         _______ _______ _______ _____ _____    ______ ____
ROOT
ATOM      1  C   UNL     1      52.027 154.890  27.907  0.00  0.00    +0.107 C 
ATOM      2  C   UNL     1      52.701 155.283  29.187  0.00  0.00    +0.235 C 
ATOM      3  O   UNL     1      53.851 155.797  29.181  0.00  0.00    -0.274 OA
ATOM      4  N   UNL     1      52.035 155.073  30.430  0.00  0.00    -0.251 N 
ATOM      5  C   UNL     1      51.080 154.057  30.487  0.00  0.00    +0.251 C 
ATOM      6  O   UNL     1      50.599 153.714  31.600  0.00  0.00    -0.270 OA
ATOM      7  C   UNL     1      50.587 153.344  29.309  0.00  0.00    +0.054 C 
ATOM      8  C   UNL     1      51.195 153.654  27.994  0.00  0.00    -0.009 C 
ATOM      9  H   UNL     1      52.241 155.624  31.219  0.00  0.00    +0.158 HD
ENDROOT
BRANCH   1  10
ATOM     10  C   UNL     1      51.082 156.030  27.637  0.00  0.00    +0.016 C 
ATOM     11  C   UNL     1      50.744 156.681  28.965  0.00  0.00    +0.001 C 
ATOM     12  C   UNL     1      51.467 157.984  29.001  0.00  0.00    +0.000 C 
ATOM     13  C   UNL     1      51.010 158.973  29.975  0.00  0.00    +0.000 C 
ATOM     14  C   UNL     1      49.848 158.486  30.808  0.00  0.00    +0.000 C 
ATOM     15  C   UNL     1      49.365 159.520  31.780  0.00  0.00    +0.001 C 
ATOM     16  C   UNL     1      50.211 160.749  31.834  0.00  0.00    +0.007 C 
ATOM     17  C   UNL     1      50.295 161.325  30.436  0.00  0.00    +0.000 C 
ATOM     18  C   UNL     1      50.775 160.348  29.411  0.00  0.00    +0.000 C 
ATOM     19  C   UNL     1      49.471 161.797  32.667  0.00  0.00    +0.064 C 
ATOM     20  C   UNL     1      49.006 161.227  33.939  0.00  0.00    +0.151 C 
ATOM     21  O   UNL     1      48.333 161.914  34.683  0.00  0.00    -0.296 OA
ATOM     22  C   UNL     1      49.371 159.836  34.276  0.00  0.00    +0.065 C 
ATOM     23  C   UNL     1      49.158 158.887  33.137  0.00  0.00    +0.008 C 
ATOM     24  C   UNL     1      48.789 158.041  29.826  0.00  0.00    +0.000 C 
ATOM     25  C   UNL     1      49.268 156.784  29.189  0.00  0.00    +0.000 C 
ATOM     26  C   UNL     1      51.692 158.406  27.605  0.00  0.00    +0.000 C 
ATOM     27  C   UNL     1      51.485 157.138  26.803  0.00  0.00    +0.001 C 
ENDBRANCH   1  10
BRANCH   1  32
ATOM     28  C   UNL     1      54.575 155.804  25.391  0.00  0.00    +0.154 C 
ATOM     29  C   UNL     1      55.062 154.574  25.019  0.00  0.00    +0.038 C 
ATOM     30  C   UNL     1      54.569 153.421  25.590  0.00  0.00    +0.006 C 
ATOM     31  C   UNL     1      53.552 153.490  26.572  0.00  0.00    +0.039 C 
ATOM     32  C   UNL     1      53.088 154.724  26.923  0.00  0.00    -0.005 C 
ATOM     33  C   UNL     1      53.595 155.893  26.335  0.00  0.00    +0.035 C 
BRANCH  31  34
ATOM     34  C   UNL     1      53.127 152.208  27.082  0.00  0.00    +0.234 C 
ATOM     35  O   UNL     1      52.474 151.299  26.566  0.00  0.00    -0.283 OA
ENDBRANCH  31  34
BRANCH  28  36
ATOM     36  O   UNL     1      55.047 156.991  24.836  0.00  0.00    -0.416 OA
ATOM     37 BR   UNL     1      54.939 157.300  22.994  0.00  0.00    +0.179 Br
ENDBRANCH  28  36
ENDBRANCH   1  32
TORSDOF 4
