REMARK  Name = =
REMARK  1 active torsions:
REMARK  status: ('A' for Active; 'I' for Inactive)
REMARK    1  A    between atoms: C_2  and  O_8
REMARK                            x       y       z     vdW  Elec       q    Type
REMARK                         _______ _______ _______ _____ _____    ______ ____
ROOT
ATOM      1  O   UNL     1     -13.676 -43.623  27.458  0.00  0.00    -0.421 OA
ATOM      2  C   UNL     1     -12.924 -42.566  27.283  0.00  0.00    +0.297 C 
ATOM      3  C   UNL     1     -13.044 -41.921  26.066  0.00  0.00    +0.120 C 
ATOM      4  C   UNL     1     -13.910 -42.359  25.074  0.00  0.00    +0.205 C 
ATOM      5  O   UNL     1     -14.008 -41.762  23.972  0.00  0.00    -0.286 OA
ATOM      6  C   UNL     1     -14.678 -43.482  25.317  0.00  0.00    +0.083 C 
ATOM      7  C   UNL     1     -14.511 -44.080  26.552  0.00  0.00    +0.186 C 
ENDROOT
BRANCH   2   8
ATOM      8  O   UNL     1     -12.058 -42.135  28.284  0.00  0.00    -0.479 OA
ATOM      9  H   UNL     1     -12.009 -42.603  29.094  0.00  0.00    +0.295 HD
ENDBRANCH   2   8
TORSDOF 1
