REMARK  Name = =
REMARK  4 active torsions:
REMARK  status: ('A' for Active; 'I' for Inactive)
REMARK    1  A    between atoms: C_2  and  O_13
REMARK    2  A    between atoms: C_6  and  N_8
REMARK    3  A    between atoms: O_13  and  N_14
REMARK    4  A    between atoms: N_14  and  N_17
REMARK                            x       y       z     vdW  Elec       q    Type
REMARK                         _______ _______ _______ _____ _____    ______ ____
ROOT
ATOM      1  O   UNL     1     -13.690 -44.689  28.567  0.00  0.00    -0.418 OA
ATOM      2  C   UNL     1     -12.451 -44.328  28.894  0.00  0.00    +0.326 C 
ATOM      3  C   UNL     1     -11.846 -43.273  28.249  0.00  0.00    +0.124 C 
ATOM      4  C   UNL     1     -12.565 -42.626  27.272  0.00  0.00    +0.221 C 
ATOM      5  O   UNL     1     -12.052 -41.670  26.669  0.00  0.00    -0.285 OA
ATOM      6  C   UNL     1     -13.845 -43.009  26.945  0.00  0.00    +0.152 C 
ATOM      7  C   UNL     1     -14.380 -44.070  27.633  0.00  0.00    +0.203 C 
ENDROOT
BRANCH   6   8
ATOM      8  N   UNL     1     -14.596 -42.331  25.925  0.00  0.00    -0.162 N 
ATOM      9  N   UNL     1     -14.180 -42.076  24.715  0.00  0.00    -0.149 NA
ATOM     10  C   UNL     1     -15.131 -41.422  24.005  0.00  0.00    +0.219 C 
ATOM     11  N   UNL     1     -16.172 -41.284  24.845  0.00  0.00    -0.203 NA
ATOM     12  C   UNL     1     -15.839 -41.844  26.023  0.00  0.00    +0.190 C 
ENDBRANCH   6   8
BRANCH   2  13
ATOM     13  O   UNL     1     -11.744 -44.991  29.876  0.00  0.00    -0.321 OA
BRANCH  13  14
ATOM     14  N   UNL     1     -10.499 -44.539  30.222  0.00  0.00    -0.004 N 
ATOM     15  C   UNL     1      -9.305 -45.062  29.698  0.00  0.00    +0.361 C 
ATOM     16  O   UNL     1      -9.396 -46.003  28.861  0.00  0.00    -0.260 OA
BRANCH  14  17
ATOM     17  N   UNL     1     -10.480 -43.480  31.169  0.00  0.00    -0.137 NA
ATOM     18  C   UNL     1     -10.058 -42.306  30.833  0.00  0.00    +0.144 C 
ENDBRANCH  14  17
ENDBRANCH  13  14
ENDBRANCH   2  13
TORSDOF 4
