REMARK  Name = =
REMARK  2 active torsions:
REMARK  status: ('A' for Active; 'I' for Inactive)
REMARK    1  A    between atoms: C_1  and  C_3
REMARK    2  A    between atoms: C_1  and  O_5
REMARK                            x       y       z     vdW  Elec       q    Type
REMARK                         _______ _______ _______ _____ _____    ______ ____
ROOT
ATOM      1  C   UNL     1      52.033 155.557  28.406  0.00  0.00    +0.381 C 
ATOM      2  O   UNL     1      53.148 155.821  27.939  0.00  0.00    -0.241 OA
ENDROOT
BRANCH   1   3
ATOM      3  C   UNL     1      51.511 156.275  29.532  0.00  0.00    +0.315 C 
ATOM      4  O   UNL     1      50.289 156.189  29.820  0.00  0.00    -0.276 OA
ENDBRANCH   1   3
BRANCH   1   5
ATOM      5  O   UNL     1      51.303 154.542  27.804  0.00  0.00    -0.475 OA
ATOM      6  H   UNL     1      50.455 154.317  28.133  0.00  0.00    +0.296 HD
ENDBRANCH   1   5
TORSDOF 2
