REMARK  Name = =
REMARK  3 active torsions:
REMARK  status: ('A' for Active; 'I' for Inactive)
REMARK    1  A    between atoms: C_1  and  C_11
REMARK    2  A    between atoms: C_11  and  C_13
REMARK    3  A    between atoms: C_13  and  O_15
REMARK                            x       y       z     vdW  Elec       q    Type
REMARK                         _______ _______ _______ _____ _____    ______ ____
ROOT
ATOM      1  C   UNL     1      52.016 160.339  31.020  0.00  0.00    +0.097 C 
ATOM      2  C   UNL     1      51.875 159.494  29.794  0.00  0.00    +0.060 C 
ATOM      3  C   UNL     1      50.931 158.350  30.069  0.00  0.00    +0.206 C 
ATOM      4  O   UNL     1      49.644 158.963  30.285  0.00  0.00    -0.476 OA
ATOM      5  C   UNL     1      49.562 159.998  31.234  0.00  0.00    +0.135 C 
ATOM      6  C   UNL     1      50.704 160.664  31.598  0.00  0.00    +0.019 C 
ATOM      7  C   UNL     1      50.592 161.694  32.555  0.00  0.00    -0.001 C 
ATOM      8  C   UNL     1      49.356 161.970  33.065  0.00  0.00    -0.000 C 
ATOM      9  C   UNL     1      48.189 161.317  32.717  0.00  0.00    +0.003 C 
ATOM     10  C   UNL     1      48.328 160.320  31.783  0.00  0.00    +0.037 C 
ENDROOT
BRANCH   1  11
ATOM     11  C   UNL     1      52.830 161.562  30.722  0.00  0.00    +0.252 C 
ATOM     12  O   UNL     1      52.366 162.534  30.103  0.00  0.00    -0.284 OA
BRANCH  11  13
ATOM     13  C   UNL     1      54.226 161.656  31.158  0.00  0.00    +0.374 C 
ATOM     14  O   UNL     1      55.171 161.478  30.319  0.00  0.00    -0.242 OA
BRANCH  13  15
ATOM     15  O   UNL     1      54.559 161.936  32.472  0.00  0.00    -0.475 OA
ATOM     16  H   UNL     1      53.884 162.071  33.108  0.00  0.00    +0.295 HD
ENDBRANCH  13  15
ENDBRANCH  11  13
ENDBRANCH   1  11
TORSDOF 3
