REMARK  Name = =
REMARK  6 active torsions:
REMARK  status: ('A' for Active; 'I' for Inactive)
REMARK    1  A    between atoms: C_1  and  N_11
REMARK    2  A    between atoms: C_1  and  C_26
REMARK    3  A    between atoms: N_11  and  N_21
REMARK    4  A    between atoms: N_14  and  C_15
REMARK    5  A    between atoms: C_26  and  C_28
REMARK    6  A    between atoms: C_28  and  O_30
REMARK                            x       y       z     vdW  Elec       q    Type
REMARK                         _______ _______ _______ _____ _____    ______ ____
ROOT
ATOM      1  C   UNL     1      53.135 153.887  26.969  0.00  0.00    +0.145 C 
ATOM      2  C   UNL     1      51.676 153.884  27.289  0.00  0.00    +0.075 C 
ATOM      3  C   UNL     1      51.312 154.086  28.730  0.00  0.00    +0.208 C 
ATOM      4  O   UNL     1      51.987 153.106  29.544  0.00  0.00    -0.476 OA
ATOM      5  C   UNL     1      53.359 153.033  29.307  0.00  0.00    +0.136 C 
ATOM      6  C   UNL     1      53.928 153.393  28.123  0.00  0.00    +0.033 C 
ATOM      7  C   UNL     1      55.325 153.288  27.970  0.00  0.00    +0.000 C 
ATOM      8  C   UNL     1      56.119 152.829  28.997  0.00  0.00    -0.000 C 
ATOM      9  C   UNL     1      55.521 152.469  30.190  0.00  0.00    +0.003 C 
ATOM     10  C   UNL     1      54.155 152.564  30.356  0.00  0.00    +0.037 C 
ENDROOT
BRANCH   1  11
ATOM     11  N   UNL     1      53.308 152.997  25.829  0.00  0.00    -0.166 N 
ATOM     12  C   UNL     1      52.839 151.637  25.967  0.00  0.00    +0.325 C 
ATOM     13  O   UNL     1      52.285 151.247  27.015  0.00  0.00    -0.251 OA
ATOM     14  N   UNL     1      52.999 150.711  24.902  0.00  0.00    -0.267 N 
ATOM     15  H   UNL     1      53.437 151.050  24.088  0.00  0.00    +0.156 HD
BRANCH  14  16
ATOM     16  C   UNL     1      52.598 149.358  24.883  0.00  0.00    +0.052 C 
ATOM     17  C   UNL     1      51.436 148.847  25.385  0.00  0.00    +0.015 C 
ATOM     18  C   UNL     1      51.199 147.475  25.268  0.00  0.00    +0.001 C 
ATOM     19  C   UNL     1      52.085 146.617  24.667  0.00  0.00    +0.000 C 
ATOM     20  C   UNL     1      53.259 147.129  24.159  0.00  0.00    +0.001 C 
ATOM     21  C   UNL     1      53.490 148.466  24.273  0.00  0.00    +0.015 C 
ENDBRANCH  14  16
BRANCH  11  22
ATOM     22  N   UNL     1      53.907 153.396  24.648  0.00  0.00    -0.091 N 
ATOM     23  N   UNL     1      53.305 153.600  23.507  0.00  0.00    -0.034 NA
ATOM     24  N   UNL     1      54.203 153.965  22.629  0.00  0.00    -0.023 NA
ATOM     25  N   UNL     1      55.399 154.001  23.198  0.00  0.00    -0.106 NA
ATOM     26  C   UNL     1      55.206 153.637  24.484  0.00  0.00    +0.231 C 
ENDBRANCH  11  22
ENDBRANCH   1  11
BRANCH   1  27
ATOM     27  C   UNL     1      53.531 155.272  26.611  0.00  0.00    +0.272 C 
ATOM     28  O   UNL     1      54.396 155.444  25.675  0.00  0.00    -0.209 OA
BRANCH  27  29
ATOM     29  C   UNL     1      53.034 156.481  27.214  0.00  0.00    +0.347 C 
ATOM     30  O   UNL     1      51.809 156.716  27.231  0.00  0.00    -0.247 OA
BRANCH  29  31
ATOM     31  O   UNL     1      53.855 157.433  27.798  0.00  0.00    -0.478 OA
ATOM     32  H   UNL     1      54.783 157.306  27.812  0.00  0.00    +0.295 HD
ENDBRANCH  29  31
ENDBRANCH  27  29
ENDBRANCH   1  27
TORSDOF 6
