REMARK  Name = =
REMARK  8 active torsions:
REMARK  status: ('A' for Active; 'I' for Inactive)
REMARK    1  A    between atoms: C_1  and  C_8
REMARK    2  A    between atoms: C_1  and  N_23
REMARK    3  A    between atoms: C_2  and  C_36
REMARK    4  A    between atoms: S_7  and  C_13
REMARK    5  A    between atoms: C_13  and  N_18
REMARK    6  A    between atoms: C_19  and  C_21
REMARK    7  A    between atoms: N_26  and  C_29
REMARK    8  A    between atoms: C_30  and  O_35
REMARK                            x       y       z     vdW  Elec       q    Type
REMARK                         _______ _______ _______ _____ _____    ______ ____
ROOT
ATOM      1  C   UNL     1     -12.422 -43.957  29.274  0.00  0.00    +0.062 C 
ATOM      2  C   UNL     1     -11.259 -43.619  28.466  0.00  0.00    +0.022 C 
ATOM      3  C   UNL     1     -11.031 -44.757  27.446  0.00  0.00    +0.066 C 
ATOM      4  C   UNL     1     -12.122 -45.720  27.656  0.00  0.00    +0.152 C 
ATOM      5  O   UNL     1     -12.559 -46.519  26.907  0.00  0.00    -0.296 OA
ATOM      6  C   UNL     1     -12.547 -45.447  29.039  0.00  0.00    +0.080 C 
ENDROOT
BRANCH   1   8
ATOM      7  S   UNL     1     -11.171 -42.605  31.360  0.00  0.00    -0.189 S 
ATOM      8  C   UNL     1     -12.214 -43.839  30.765  0.00  0.00    +0.061 C 
ATOM      9  C   UNL     1     -13.325 -44.072  31.679  0.00  0.00    +0.079 C 
ATOM     10  N   UNL     1     -14.119 -42.970  32.132  0.00  0.00    -0.296 NA
ATOM     11  C   UNL     1     -13.255 -42.230  33.068  0.00  0.00    +0.079 C 
ATOM     12  C   UNL     1     -12.224 -41.479  32.260  0.00  0.00    +0.057 C 
ATOM     13  H   UNL     1     -10.540 -42.050  30.291  0.00  0.00    +0.087 HD
ATOM     14  H   UNL     1     -14.957 -43.305  32.607  0.00  0.00    +0.123 HD
BRANCH   7  15
ATOM     15  C   UNL     1      -9.772 -43.148  32.420  0.00  0.00    +0.168 C 
ATOM     16  N   UNL     1      -8.590 -42.473  32.002  0.00  0.00    -0.269 NA
ATOM     17  C   UNL     1      -7.432 -43.242  32.244  0.00  0.00    +0.083 C 
ATOM     18  C   UNL     1      -7.619 -44.599  31.564  0.00  0.00    +0.078 C 
ATOM     19  S   UNL     1      -9.380 -44.870  32.035  0.00  0.00    -0.098 S 
ATOM     20  H   UNL     1      -8.656 -42.281  31.002  0.00  0.00    +0.126 HD
BRANCH  15  21
ATOM     21  N   UNL     1     -10.000 -42.950  33.788  0.00  0.00    -0.277 N 
ATOM     22  C   UNL     1      -9.717 -41.738  34.466  0.00  0.00    +0.248 C 
ATOM     23  O   UNL     1      -9.230 -40.730  33.879  0.00  0.00    -0.270 OA
ATOM     24  H   UNL     1     -10.378 -43.695  34.308  0.00  0.00    +0.152 HD
BRANCH  22  25
ATOM     25  C   UNL     1      -9.984 -41.616  35.893  0.00  0.00    +0.058 C 
ATOM     26  C   UNL     1      -9.206 -40.841  36.620  0.00  0.00    +0.005 C 
ENDBRANCH  22  25
ENDBRANCH  15  21
ENDBRANCH   7  15
ENDBRANCH   1   8
BRANCH   1  27
ATOM     27  N   UNL     1     -13.613 -43.251  28.906  0.00  0.00    -0.271 NA
ATOM     28  C   UNL     1     -14.837 -43.913  29.313  0.00  0.00    +0.094 C 
ATOM     29  C   UNL     1     -16.029 -42.951  29.037  0.00  0.00    +0.108 C 
ATOM     30  N   UNL     1     -16.150 -42.789  27.624  0.00  0.00    -0.302 N 
ATOM     31  C   UNL     1     -15.069 -43.327  26.859  0.00  0.00    +0.108 C 
ATOM     32  C   UNL     1     -13.777 -42.922  27.545  0.00  0.00    +0.094 C 
BRANCH  30  33
ATOM     33  C   UNL     1     -17.253 -42.148  27.043  0.00  0.00    +0.082 C 
ATOM     34  C   UNL     1     -18.429 -41.932  27.759  0.00  0.00    +0.147 C 
ATOM     35  C   UNL     1     -19.498 -41.311  27.184  0.00  0.00    +0.038 C 
ATOM     36  C   UNL     1     -19.476 -40.863  25.874  0.00  0.00    +0.003 C 
ATOM     37  C   UNL     1     -18.308 -41.081  25.171  0.00  0.00    +0.001 C 
ATOM     38  C   UNL     1     -17.221 -41.702  25.727  0.00  0.00    +0.018 C 
BRANCH  34  39
ATOM     39  O   UNL     1     -18.494 -42.362  29.070  0.00  0.00    -0.504 OA
ATOM     40  H   UNL     1     -17.756 -42.788  29.460  0.00  0.00    +0.292 HD
ENDBRANCH  34  39
ENDBRANCH  30  33
ENDBRANCH   1  27
BRANCH   2  41
ATOM     41  C   UNL     1     -10.995 -42.399  27.734  0.00  0.00    +0.002 C 
ATOM     42  C   UNL     1      -9.803 -42.736  26.801  0.00  0.00    +0.000 C 
ATOM     43  C   UNL     1      -8.709 -41.776  27.114  0.00  0.00    +0.000 C 
ATOM     44  C   UNL     1      -9.054 -41.143  28.454  0.00  0.00    +0.000 C 
ATOM     45  C   UNL     1     -10.564 -41.153  28.353  0.00  0.00    +0.000 C 
ENDBRANCH   2  41
TORSDOF 8
