REMARK  Name = =
REMARK  1 active torsions:
REMARK  status: ('A' for Active; 'I' for Inactive)
REMARK    1  A    between atoms: C_1  and  O_3
REMARK                            x       y       z     vdW  Elec       q    Type
REMARK                         _______ _______ _______ _____ _____    ______ ____
ROOT
ATOM      1  C   UNL     1      -4.397  -4.092  30.659  0.00  0.00    +0.415 C 
ATOM      2  O   UNL     1      -4.985  -3.022  30.386  0.00  0.00    -0.238 OA
ENDROOT
BRANCH   1   3
ATOM      3  O   UNL     1      -3.073  -4.272  30.323  0.00  0.00    -0.473 OA
ATOM      4  H   UNL     1      -2.642  -5.077  30.532  0.00  0.00    +0.296 HD
ENDBRANCH   1   3
TORSDOF 1
