REMARK  Name = =
REMARK  4 active torsions:
REMARK  status: ('A' for Active; 'I' for Inactive)
REMARK    1  A    between atoms: C_1  and  O_9
REMARK    2  A    between atoms: C_4  and  C_7
REMARK    3  A    between atoms: O_9  and  C_10
REMARK    4  A    between atoms: C_10  and  O_12
REMARK                            x       y       z     vdW  Elec       q    Type
REMARK                         _______ _______ _______ _____ _____    ______ ____
ROOT
ATOM      1  C   UNL     1      -5.773  -2.072  32.340  0.00  0.00    +0.152 C 
ATOM      2  C   UNL     1      -4.950  -2.341  31.271  0.00  0.00    +0.038 C 
ATOM      3  C   UNL     1      -4.252  -3.523  31.218  0.00  0.00    +0.003 C 
ATOM      4  C   UNL     1      -4.336  -4.487  32.217  0.00  0.00    +0.000 C 
ATOM      5  C   UNL     1      -5.161  -4.212  33.284  0.00  0.00    +0.003 C 
ATOM      6  C   UNL     1      -5.879  -3.019  33.357  0.00  0.00    +0.038 C 
ENDROOT
BRANCH   4   7
ATOM      7  C   UNL     1      -3.576  -5.732  32.122  0.00  0.00    +0.000 C 
ATOM      8  C   UNL     1      -3.678  -6.704  32.987  0.00  0.00    +0.000 C 
ENDBRANCH   4   7
BRANCH   1   9
ATOM      9  O   UNL     1      -6.476  -0.872  32.383  0.00  0.00    -0.394 OA
BRANCH   9  10
ATOM     10  C   UNL     1      -7.667  -0.725  31.712  0.00  0.00    +0.513 C 
ATOM     11  O   UNL     1      -8.129  -1.700  31.087  0.00  0.00    -0.203 OA
BRANCH  10  12
ATOM     12  O   UNL     1      -8.396   0.466  31.691  0.00  0.00    -0.449 OA
ATOM     13  H   UNL     1      -9.203   0.513  31.218  0.00  0.00    +0.299 HD
ENDBRANCH  10  12
ENDBRANCH   9  10
ENDBRANCH   1   9
TORSDOF 4
