REMARK  Name = =
REMARK  5 active torsions:
REMARK  status: ('A' for Active; 'I' for Inactive)
REMARK    1  A    between atoms: C_1  and  O_15
REMARK    2  A    between atoms: C_2  and  C_7
REMARK    3  A    between atoms: C_4  and  C_13
REMARK    4  A    between atoms: O_15  and  C_16
REMARK    5  A    between atoms: C_16  and  O_18
REMARK                            x       y       z     vdW  Elec       q    Type
REMARK                         _______ _______ _______ _____ _____    ______ ____
ROOT
ATOM      1  C   UNL     1      -4.150  -2.092  31.759  0.00  0.00    +0.148 C 
ATOM      2  C   UNL     1      -4.823  -3.316  31.975  0.00  0.00    +0.012 C 
ATOM      3  C   UNL     1      -6.169  -3.210  32.167  0.00  0.00    -0.001 C 
ATOM      4  C   UNL     1      -6.867  -2.030  32.162  0.00  0.00    -0.000 C 
ATOM      5  C   UNL     1      -6.165  -0.806  31.945  0.00  0.00    +0.003 C 
ATOM      6  C   UNL     1      -4.795  -0.884  31.744  0.00  0.00    +0.037 C 
ENDROOT
BRANCH   2   7
ATOM      7  C   UNL     1      -4.023  -4.485  32.177  0.00  0.00    +0.025 C 
ATOM      8  C   UNL     1      -4.144  -5.663  31.259  0.00  0.00    +0.004 C 
ATOM      9  C   UNL     1      -2.937  -6.557  31.673  0.00  0.00    +0.000 C 
ATOM     10  C   UNL     1      -3.265  -7.176  33.038  0.00  0.00    +0.000 C 
ATOM     11  C   UNL     1      -4.211  -6.307  33.763  0.00  0.00    +0.000 C 
ATOM     12  C   UNL     1      -4.626  -5.097  33.484  0.00  0.00    +0.004 C 
ENDBRANCH   2   7
BRANCH   4  13
ATOM     13  C   UNL     1      -8.295  -1.901  32.491  0.00  0.00    -0.000 C 
ATOM     14  C   UNL     1      -9.007  -2.913  32.893  0.00  0.00    -0.000 C 
ENDBRANCH   4  13
BRANCH   1  15
ATOM     15  O   UNL     1      -2.761  -2.235  31.557  0.00  0.00    -0.394 OA
BRANCH  15  16
ATOM     16  C   UNL     1      -2.340  -2.574  30.251  0.00  0.00    +0.513 C 
ATOM     17  O   UNL     1      -3.276  -2.645  29.362  0.00  0.00    -0.203 OA
BRANCH  16  18
ATOM     18  O   UNL     1      -1.075  -2.823  29.862  0.00  0.00    -0.449 OA
ATOM     19  H   UNL     1      -0.894  -3.041  28.969  0.00  0.00    +0.299 HD
ENDBRANCH  16  18
ENDBRANCH  15  16
ENDBRANCH   1  15
TORSDOF 5
