REMARK  Name = =
REMARK  6 active torsions:
REMARK  status: ('A' for Active; 'I' for Inactive)
REMARK    1  A    between atoms: C_1  and  O_17
REMARK    2  A    between atoms: C_2  and  C_7
REMARK    3  A    between atoms: C_4  and  C_15
REMARK    4  A    between atoms: C_8  and  C_13
REMARK    5  A    between atoms: O_17  and  C_18
REMARK    6  A    between atoms: C_18  and  O_20
REMARK                            x       y       z     vdW  Elec       q    Type
REMARK                         _______ _______ _______ _____ _____    ______ ____
ROOT
ATOM      1  C   UNL     1       0.620 -14.378  24.494  0.00  0.00    +0.148 C 
ATOM      2  C   UNL     1       1.716 -13.656  23.929  0.00  0.00    +0.017 C 
ATOM      3  C   UNL     1       2.055 -12.476  24.488  0.00  0.00    -0.001 C 
ATOM      4  C   UNL     1       1.406 -11.952  25.577  0.00  0.00    -0.000 C 
ATOM      5  C   UNL     1       0.332 -12.626  26.178  0.00  0.00    +0.003 C 
ATOM      6  C   UNL     1       0.006 -13.779  25.636  0.00  0.00    +0.037 C 
ENDROOT
BRANCH   2   7
ATOM      7  C   UNL     1       2.258 -14.168  22.649  0.00  0.00    +0.059 C 
ATOM      8  C   UNL     1       3.600 -14.808  22.588  0.00  0.00    +0.074 C 
ATOM      9  C   UNL     1       4.718 -13.975  22.005  0.00  0.00    +0.018 C 
ATOM     10  C   UNL     1       4.405 -13.078  20.917  0.00  0.00    +0.027 C 
ATOM     11  C   UNL     1       2.977 -12.608  20.823  0.00  0.00    -0.030 C 
ATOM     12  C   UNL     1       2.151 -13.130  21.621  0.00  0.00    -0.026 C 
BRANCH   8  13
ATOM     13  C   UNL     1       4.095 -15.076  24.128  0.00  0.00    -0.078 C 
ATOM     14  C   UNL     1       4.464 -15.269  25.219  0.00  0.00    -0.014 C 
ENDBRANCH   8  13
ENDBRANCH   2   7
BRANCH   4  15
ATOM     15  C   UNL     1       1.832 -10.753  26.251  0.00  0.00    -0.000 C 
ATOM     16  C   UNL     1       2.996 -10.688  26.870  0.00  0.00    -0.000 C 
ENDBRANCH   4  15
BRANCH   1  17
ATOM     17  O   UNL     1       0.092 -15.398  24.087  0.00  0.00    -0.394 OA
BRANCH  17  18
ATOM     18  C   UNL     1      -0.416 -16.458  23.595  0.00  0.00    +0.513 C 
ATOM     19  O   UNL     1      -0.453 -16.414  22.309  0.00  0.00    -0.203 OA
BRANCH  18  20
ATOM     20  O   UNL     1      -0.880 -17.538  24.309  0.00  0.00    -0.449 OA
ATOM     21  H   UNL     1      -1.239 -18.278  23.859  0.00  0.00    +0.299 HD
ENDBRANCH  18  20
ENDBRANCH  17  18
ENDBRANCH   1  17
TORSDOF 6
