REMARK  Name = =
REMARK  9 active torsions:
REMARK  status: ('A' for Active; 'I' for Inactive)
REMARK    1  A    between atoms: C_1  and  N_17
REMARK    2  A    between atoms: C_1  and  N_18
REMARK    3  A    between atoms: C_6  and  C_10
REMARK    4  A    between atoms: N_12  and  C_13
REMARK    5  A    between atoms: C_14  and  S_15
REMARK    6  A    between atoms: S_15  and  S_16
REMARK    7  A    between atoms: N_18  and  S_19
REMARK    8  A    between atoms: S_19  and  N_22
REMARK    9  A    between atoms: C_23  and  O_25
REMARK                            x       y       z     vdW  Elec       q    Type
REMARK                         _______ _______ _______ _____ _____    ______ ____
ROOT
ATOM      1  C   UNL     1       2.201  -6.106  22.137  0.00  0.00    +0.104 C 
ATOM      2  C   UNL     1       2.685  -7.071  21.116  0.00  0.00    +0.031 C 
ATOM      3  C   UNL     1       2.780  -8.443  21.758  0.00  0.00    +0.007 C 
ATOM      4  C   UNL     1       1.586  -9.294  21.431  0.00  0.00    +0.022 C 
ATOM      5  C   UNL     1       1.474 -10.151  22.661  0.00  0.00    -0.040 C 
ATOM      6  C   UNL     1       1.174 -11.422  22.647  0.00  0.00    +0.050 C 
ATOM      7  C   UNL     1       1.775  -9.275  23.799  0.00  0.00    +0.022 C 
ATOM      8  C   UNL     1       2.700  -8.220  23.241  0.00  0.00    +0.007 C 
ATOM      9  C   UNL     1       2.144  -6.856  23.458  0.00  0.00    +0.031 C 
ENDROOT
BRANCH   6  10
ATOM     10  C   UNL     1       1.053 -12.278  23.804  0.00  0.00    +0.249 C 
ATOM     11  O   UNL     1      -0.040 -12.780  24.100  0.00  0.00    -0.270 OA
ATOM     12  N   UNL     1       2.171 -12.575  24.646  0.00  0.00    -0.279 N 
ATOM     13  H   UNL     1       3.058 -12.194  24.454  0.00  0.00    +0.155 HD
BRANCH  12  14
ATOM     14  C   UNL     1       1.980 -13.419  25.750  0.00  0.00    +0.072 C 
ATOM     15  C   UNL     1       2.891 -13.600  26.666  0.00  0.00    +0.057 C 
BRANCH  15  16
ATOM     16  S   UNL     1       4.449 -12.773  26.564  0.00  0.00    -0.057 S 
BRANCH  16  17
ATOM     17  S   UNL     1       5.797 -14.000  25.465  0.00  0.00    -0.105 S 
ATOM     18  H   UNL     1       7.004 -13.380  25.375  0.00  0.00    +0.114 HD
ENDBRANCH  16  17
ENDBRANCH  15  16
ENDBRANCH  12  14
ENDBRANCH   6  10
BRANCH   1  19
ATOM     19  N   UNL     1       0.808  -5.699  21.851  0.00  0.00    -0.311 NA
ATOM     20  H   UNL     1       0.494  -5.038  22.561  0.00  0.00    +0.120 HD
ATOM     21  H   UNL     1       0.205  -6.521  21.862  0.00  0.00    +0.120 HD
ENDBRANCH   1  19
BRANCH   1  22
ATOM     22  N   UNL     1       3.036  -4.975  22.333  0.00  0.00    -0.156 NA
ATOM     23  H   UNL     1       3.909  -5.306  22.744  0.00  0.00    +0.151 HD
BRANCH  22  24
ATOM     24  S   UNL     1       3.433  -4.055  20.960  0.00  0.00    +0.115 S 
ATOM     25  O   UNL     1       3.483  -2.598  21.233  0.00  0.00    -0.138 OA
ATOM     26  O   UNL     1       2.244  -4.233  19.993  0.00  0.00    -0.138 OA
BRANCH  24  27
ATOM     27  N   UNL     1       4.798  -4.618  20.090  0.00  0.00    -0.141 N 
ATOM     28  C   UNL     1       5.867  -5.283  20.724  0.00  0.00    +0.418 C 
ATOM     29  O   UNL     1       5.866  -5.497  21.981  0.00  0.00    -0.225 OA
ATOM     30  H   UNL     1       4.837  -4.472  19.117  0.00  0.00    +0.181 HD
BRANCH  28  31
ATOM     31  O   UNL     1       6.989  -5.747  20.027  0.00  0.00    -0.465 OA
ATOM     32  H   UNL     1       7.050  -5.621  19.101  0.00  0.00    +0.297 HD
ENDBRANCH  28  31
ENDBRANCH  24  27
ENDBRANCH  22  24
ENDBRANCH   1  22
TORSDOF 9
