REMARK  Name = =
REMARK  7 active torsions:
REMARK  status: ('A' for Active; 'I' for Inactive)
REMARK    1  A    between atoms: C_1  and  C_8
REMARK    2  A    between atoms: C_2  and  C_19
REMARK    3  A    between atoms: C_7  and  O_15
REMARK    4  A    between atoms: C_10  and  C_13
REMARK    5  A    between atoms: O_15  and  C_16
REMARK    6  A    between atoms: C_16  and  O_18
REMARK    7  A    between atoms: C_20  and  C_21
REMARK                            x       y       z     vdW  Elec       q    Type
REMARK                         _______ _______ _______ _____ _____    ______ ____
ROOT
ATOM      1  C   UNL     1       2.314 -14.175  23.166  0.00  0.00    +0.059 C 
ATOM      2  C   UNL     1       2.338 -13.933  21.671  0.00  0.00    +0.073 C 
ATOM      3  C   UNL     1       3.680 -13.383  21.183  0.00  0.00    +0.018 C 
ATOM      4  C   UNL     1       4.801 -13.970  21.985  0.00  0.00    +0.027 C 
ATOM      5  C   UNL     1       4.626 -13.483  23.372  0.00  0.00    -0.030 C 
ATOM      6  C   UNL     1       3.396 -13.585  23.951  0.00  0.00    -0.026 C 
ENDROOT
BRANCH   1   8
ATOM      7  C   UNL     1       0.358 -13.826  24.639  0.00  0.00    +0.148 C 
ATOM      8  C   UNL     1       1.100 -14.602  23.773  0.00  0.00    +0.017 C 
ATOM      9  C   UNL     1       0.664 -15.936  23.603  0.00  0.00    -0.001 C 
ATOM     10  C   UNL     1      -0.413 -16.483  24.230  0.00  0.00    -0.000 C 
ATOM     11  C   UNL     1      -1.141 -15.697  25.094  0.00  0.00    +0.003 C 
ATOM     12  C   UNL     1      -0.748 -14.384  25.288  0.00  0.00    +0.037 C 
BRANCH  10  13
ATOM     13  C   UNL     1      -0.877 -17.855  24.045  0.00  0.00    -0.000 C 
ATOM     14  C   UNL     1       0.009 -18.784  23.699  0.00  0.00    -0.000 C 
ENDBRANCH  10  13
BRANCH   7  15
ATOM     15  O   UNL     1       0.629 -12.539  24.901  0.00  0.00    -0.394 OA
BRANCH  15  16
ATOM     16  C   UNL     1       0.736 -11.811  26.051  0.00  0.00    +0.513 C 
ATOM     17  O   UNL     1       0.427 -12.265  27.153  0.00  0.00    -0.203 OA
BRANCH  16  18
ATOM     18  O   UNL     1       1.215 -10.500  25.925  0.00  0.00    -0.449 OA
ATOM     19  H   UNL     1       1.307  -9.960  26.685  0.00  0.00    +0.299 HD
ENDBRANCH  16  18
ENDBRANCH  15  16
ENDBRANCH   7  15
ENDBRANCH   1   8
BRANCH   2  20
ATOM     20  C   UNL     1       1.418 -12.743  21.494  0.00  0.00    -0.087 C 
ATOM     21  C   UNL     1       0.691 -11.824  21.338  0.00  0.00    -0.064 C 
BRANCH  21  22
ATOM     22  C   UNL     1      -0.204 -10.708  21.130  0.00  0.00    +0.078 C 
ATOM     23  C   UNL     1      -0.613  -9.912  22.235  0.00  0.00    +0.126 C 
ATOM     24  N   UNL     1      -1.360  -8.828  21.988  0.00  0.00    -0.327 N 
ATOM     25  C   UNL     1      -1.758  -8.450  20.773  0.00  0.00    +0.061 C 
ATOM     26  C   UNL     1      -1.388  -9.199  19.669  0.00  0.00    +0.058 C 
ATOM     27  C   UNL     1      -0.628 -10.298  19.908  0.00  0.00    +0.202 C 
ATOM     28  O   UNL     1      -0.253 -11.052  18.915  0.00  0.00    -0.286 OA
ATOM     29  H   UNL     1      -1.633  -8.274  22.754  0.00  0.00    +0.147 HD
ENDBRANCH  21  22
ENDBRANCH   2  20
TORSDOF 7
