REMARK  Name = =
REMARK  10 active torsions:
REMARK  status: ('A' for Active; 'I' for Inactive)
REMARK    1  A    between atoms: C_1  and  C_8
REMARK    2  A    between atoms: C_2  and  C_25
REMARK    3  A    between atoms: C_3  and  N_19
REMARK    4  A    between atoms: C_7  and  O_15
REMARK    5  A    between atoms: C_10  and  C_13
REMARK    6  A    between atoms: O_15  and  C_16
REMARK    7  A    between atoms: C_16  and  O_18
REMARK    8  A    between atoms: C_20  and  C_22
REMARK    9  A    between atoms: C_22  and  O_24
REMARK   10  A    between atoms: C_26  and  C_27
REMARK                            x       y       z     vdW  Elec       q    Type
REMARK                         _______ _______ _______ _____ _____    ______ ____
ROOT
ATOM      1  C   UNL     1       3.336 -12.278  23.235  0.00  0.00    +0.039 C 
ATOM      2  C   UNL     1       2.674 -11.211  23.950  0.00  0.00    +0.086 C 
ATOM      3  C   UNL     1       3.490 -10.896  25.242  0.00  0.00    +0.084 C 
ATOM      4  C   UNL     1       4.700 -11.842  25.288  0.00  0.00    +0.021 C 
ATOM      5  C   UNL     1       4.233 -13.301  25.223  0.00  0.00    +0.002 C 
ATOM      6  C   UNL     1       3.466 -13.524  24.147  0.00  0.00    +0.006 C 
ENDROOT
BRANCH   1   8
ATOM      7  C   UNL     1       4.204 -12.190  20.936  0.00  0.00    +0.148 C 
ATOM      8  C   UNL     1       3.193 -12.634  21.848  0.00  0.00    +0.013 C 
ATOM      9  C   UNL     1       1.931 -12.934  21.283  0.00  0.00    -0.005 C 
ATOM     10  C   UNL     1       1.676 -12.766  19.908  0.00  0.00    -0.022 C 
ATOM     11  C   UNL     1       2.713 -12.313  19.096  0.00  0.00    -0.001 C 
ATOM     12  C   UNL     1       3.941 -12.041  19.595  0.00  0.00    +0.037 C 
BRANCH  10  13
ATOM     13  C   UNL     1       0.440 -13.052  19.206  0.00  0.00    +0.026 C 
ATOM     14  C   UNL     1       0.519 -12.878  17.698  0.00  0.00    +0.005 C 
ENDBRANCH  10  13
BRANCH   7  15
ATOM     15  O   UNL     1       5.416 -11.977  21.547  0.00  0.00    -0.394 OA
BRANCH  15  16
ATOM     16  C   UNL     1       6.074 -10.734  21.642  0.00  0.00    +0.513 C 
ATOM     17  O   UNL     1       5.393  -9.721  21.713  0.00  0.00    -0.203 OA
BRANCH  16  18
ATOM     18  O   UNL     1       7.447 -10.602  21.669  0.00  0.00    -0.449 OA
ATOM     19  H   UNL     1       7.835  -9.751  21.733  0.00  0.00    +0.299 HD
ENDBRANCH  16  18
ENDBRANCH  15  16
ENDBRANCH   7  15
ENDBRANCH   1   8
BRANCH   3  20
ATOM     20  N   UNL     1       3.968  -9.604  25.362  0.00  0.00    -0.296 N 
ATOM     21  C   UNL     1       3.750  -8.795  26.512  0.00  0.00    +0.322 C 
ATOM     22  O   UNL     1       2.953  -9.484  27.371  0.00  0.00    -0.263 OA
ATOM     23  H   UNL     1       4.485  -9.225  24.615  0.00  0.00    +0.150 HD
BRANCH  21  24
ATOM     24  C   UNL     1       4.171  -7.541  26.867  0.00  0.00    +0.392 C 
ATOM     25  O   UNL     1       4.547  -6.742  25.806  0.00  0.00    -0.240 OA
BRANCH  24  26
ATOM     26  O   UNL     1       4.288  -6.861  28.030  0.00  0.00    -0.474 OA
ATOM     27  H   UNL     1       4.067  -7.277  28.840  0.00  0.00    +0.296 HD
ENDBRANCH  24  26
ENDBRANCH  21  24
ENDBRANCH   3  20
BRANCH   2  28
ATOM     28  C   UNL     1       2.413 -10.083  23.343  0.00  0.00    -0.086 C 
ATOM     29  C   UNL     1       2.144  -8.946  22.746  0.00  0.00    -0.064 C 
BRANCH  29  30
ATOM     30  C   UNL     1       1.846  -7.631  22.032  0.00  0.00    +0.078 C 
ATOM     31  C   UNL     1       2.630  -6.453  22.320  0.00  0.00    +0.126 C 
ATOM     32  N   UNL     1       2.296  -5.257  21.923  0.00  0.00    -0.327 N 
ATOM     33  C   UNL     1       1.078  -5.239  21.163  0.00  0.00    +0.061 C 
ATOM     34  C   UNL     1       0.379  -6.159  20.896  0.00  0.00    +0.058 C 
ATOM     35  C   UNL     1       0.677  -7.507  21.289  0.00  0.00    +0.202 C 
ATOM     36  O   UNL     1      -0.078  -8.511  20.951  0.00  0.00    -0.286 OA
ATOM     37  H   UNL     1       2.824  -4.450  22.123  0.00  0.00    +0.147 HD
ENDBRANCH  29  30
ENDBRANCH   2  28
TORSDOF 10
