REMARK  Name = =
REMARK  11 active torsions:
REMARK  status: ('A' for Active; 'I' for Inactive)
REMARK    1  A    between atoms: C_1  and  C_22
REMARK    2  A    between atoms: C_2  and  C_39
REMARK    3  A    between atoms: C_3  and  N_33
REMARK    4  A    between atoms: C_5  and  C_7
REMARK    5  A    between atoms: C_21  and  O_29
REMARK    6  A    between atoms: C_24  and  C_27
REMARK    7  A    between atoms: O_29  and  C_30
REMARK    8  A    between atoms: C_30  and  O_32
REMARK    9  A    between atoms: C_34  and  C_36
REMARK   10  A    between atoms: C_36  and  O_38
REMARK   11  A    between atoms: C_40  and  C_41
REMARK                            x       y       z     vdW  Elec       q    Type
REMARK                         _______ _______ _______ _____ _____    ______ ____
ROOT
ATOM      1  C   UNL     1       5.699  -7.888  20.326  0.00  0.00    +0.061 C 
ATOM      2  C   UNL     1       4.503  -8.743  20.477  0.00  0.00    +0.091 C 
ATOM      3  C   UNL     1       3.898  -8.751  21.884  0.00  0.00    +0.089 C 
ATOM      4  C   UNL     1       4.148  -7.329  22.439  0.00  0.00    +0.047 C 
ATOM      5  C   UNL     1       5.618  -7.392  22.781  0.00  0.00    -0.023 C 
ATOM      6  C   UNL     1       6.352  -7.665  21.717  0.00  0.00    -0.025 C 
ENDROOT
BRANCH   5   7
ATOM      7  C   UNL     1       6.135  -7.314  24.125  0.00  0.00    +0.015 C 
ATOM      8  C   UNL     1       5.825  -6.330  25.003  0.00  0.00    +0.099 A 
ATOM      9  N   UNL     1       5.114  -5.216  24.660  0.00  0.00    -0.242 NA
ATOM     10  C   UNL     1       4.817  -4.231  25.432  0.00  0.00    +0.099 A 
ATOM     11  C   UNL     1       5.235  -4.256  26.780  0.00  0.00    +0.099 A 
ATOM     12  N   UNL     1       5.950  -5.373  27.127  0.00  0.00    -0.242 NA
ATOM     13  C   UNL     1       6.257  -6.368  26.357  0.00  0.00    +0.099 A 
ATOM     14  C   UNL     1       7.020  -7.451  26.815  0.00  0.00    +0.021 C 
ATOM     15  C   UNL     1       7.343  -8.468  25.893  0.00  0.00    +0.002 C 
ATOM     16  C   UNL     1       6.913  -8.400  24.599  0.00  0.00    +0.001 C 
ATOM     17  C   UNL     1       4.915  -3.253  27.651  0.00  0.00    +0.021 C 
ATOM     18  C   UNL     1       4.154  -2.164  27.216  0.00  0.00    +0.002 C 
ATOM     19  C   UNL     1       3.726  -2.096  25.930  0.00  0.00    +0.002 C 
ATOM     20  C   UNL     1       4.051  -3.127  25.014  0.00  0.00    +0.021 C 
ENDBRANCH   5   7
BRANCH   1  22
ATOM     21  C   UNL     1       7.708  -7.583  18.892  0.00  0.00    +0.148 C 
ATOM     22  C   UNL     1       6.807  -8.477  19.539  0.00  0.00    +0.017 C 
ATOM     23  C   UNL     1       7.066  -9.776  19.463  0.00  0.00    -0.001 C 
ATOM     24  C   UNL     1       8.134 -10.387  18.814  0.00  0.00    -0.000 C 
ATOM     25  C   UNL     1       9.032  -9.511  18.167  0.00  0.00    +0.003 C 
ATOM     26  C   UNL     1       8.771  -8.162  18.240  0.00  0.00    +0.037 C 
BRANCH  24  27
ATOM     27  C   UNL     1       8.411 -11.798  18.741  0.00  0.00    -0.000 C 
ATOM     28  C   UNL     1       9.530 -12.236  18.126  0.00  0.00    -0.000 C 
ENDBRANCH  24  27
BRANCH  21  29
ATOM     29  O   UNL     1       7.434  -6.250  18.971  0.00  0.00    -0.394 OA
BRANCH  29  30
ATOM     30  C   UNL     1       7.402  -5.456  17.818  0.00  0.00    +0.513 C 
ATOM     31  O   UNL     1       6.380  -5.579  17.078  0.00  0.00    -0.203 OA
BRANCH  30  32
ATOM     32  O   UNL     1       8.447  -4.595  17.523  0.00  0.00    -0.449 OA
ATOM     33  H   UNL     1       8.416  -4.068  16.749  0.00  0.00    +0.299 HD
ENDBRANCH  30  32
ENDBRANCH  29  30
ENDBRANCH  21  29
ENDBRANCH   1  22
BRANCH   3  34
ATOM     34  N   UNL     1       2.494  -9.004  21.820  0.00  0.00    -0.296 N 
ATOM     35  C   UNL     1       1.842  -9.727  22.879  0.00  0.00    +0.322 C 
ATOM     36  O   UNL     1       2.574 -10.113  23.862  0.00  0.00    -0.263 OA
ATOM     37  H   UNL     1       1.971  -8.683  21.050  0.00  0.00    +0.150 HD
BRANCH  35  38
ATOM     38  C   UNL     1       0.461 -10.029  22.905  0.00  0.00    +0.392 C 
ATOM     39  O   UNL     1      -0.059 -10.769  21.928  0.00  0.00    -0.240 OA
BRANCH  38  40
ATOM     40  O   UNL     1      -0.472  -9.671  23.809  0.00  0.00    -0.474 OA
ATOM     41  H   UNL     1      -0.232  -9.147  24.548  0.00  0.00    +0.296 HD
ENDBRANCH  38  40
ENDBRANCH  35  38
ENDBRANCH   3  34
BRANCH   2  42
ATOM     42  C   UNL     1       3.397  -8.277  19.561  0.00  0.00    -0.085 C 
ATOM     43  C   UNL     1       2.576  -7.930  18.854  0.00  0.00    -0.060 C 
BRANCH  43  44
ATOM     44  C   UNL     1       1.496  -7.447  17.926  0.00  0.00    +0.095 C 
ATOM     45  C   UNL     1       1.369  -7.919  16.717  0.00  0.00    +0.073 C 
ATOM     46  N   UNL     1       0.399  -7.438  15.853  0.00  0.00    -0.310 N 
ATOM     47  C   UNL     1      -0.422  -6.461  16.303  0.00  0.00    +0.065 C 
ATOM     48  C   UNL     1      -0.330  -5.943  17.538  0.00  0.00    +0.059 C 
ATOM     49  C   UNL     1       0.659  -6.427  18.430  0.00  0.00    +0.206 C 
ATOM     50  O   UNL     1       0.776  -5.984  19.559  0.00  0.00    -0.286 OA
ATOM     51  H   UNL     1       0.310  -7.796  14.940  0.00  0.00    +0.152 HD
ENDBRANCH  43  44
ENDBRANCH   2  42
TORSDOF 11
