MODEL 1
REMARK VINA RESULT:   -15.414      0.000      0.000
REMARK INTER + INTRA:         -16.195
REMARK INTER:                 -16.315
REMARK INTRA:                   0.120
REMARK UNBOUND:                 0.120
REMARK  Name = =
REMARK  1 active torsions:
REMARK  status: ('A' for Active; 'I' for Inactive)
REMARK    1  A    between atoms: C_1  and  C_19
REMARK                            x       y       z     vdW  Elec       q    Type
REMARK                         _______ _______ _______ _____ _____    ______ ____
ROOT
ATOM      1  C   UNL     1      52.210 155.051  27.743  0.00  0.00    +0.019 C 
ATOM      2  C   UNL     1      51.004 155.163  28.399  0.00  0.00    +0.002 C 
ATOM      3  C   UNL     1      50.612 156.281  29.135  0.00  0.00    +0.000 C 
ATOM      4  C   UNL     1      51.487 157.347  29.211  0.00  0.00    +0.000 C 
ATOM      5  C   UNL     1      51.090 158.454  29.945  0.00  0.00    +0.000 C 
ATOM      6  C   UNL     1      49.845 158.501  30.589  0.00  0.00    +0.000 C 
ATOM      7  C   UNL     1      49.435 159.605  31.327  0.00  0.00    +0.000 C 
ATOM      8  C   UNL     1      50.325 160.673  31.397  0.00  0.00    +0.000 C 
ATOM      9  C   UNL     1      51.550 160.651  30.775  0.00  0.00    +0.000 C 
ATOM     10  C   UNL     1      51.930 159.531  30.044  0.00  0.00    +0.000 C 
ATOM     11  C   UNL     1      49.924 161.785  32.135  0.00  0.00    +0.000 C 
ATOM     12  C   UNL     1      48.703 161.830  32.765  0.00  0.00    +0.000 C 
ATOM     13  C   UNL     1      47.817 160.771  32.697  0.00  0.00    +0.000 C 
ATOM     14  C   UNL     1      48.213 159.669  31.968  0.00  0.00    +0.000 C 
ATOM     15  C   UNL     1      49.004 157.428  30.491  0.00  0.00    +0.000 C 
ATOM     16  C   UNL     1      49.393 156.322  29.764  0.00  0.00    +0.000 C 
ATOM     17  C   UNL     1      52.705 157.269  28.565  0.00  0.00    +0.000 C 
ATOM     18  C   UNL     1      53.054 156.134  27.843  0.00  0.00    +0.002 C 
ENDROOT
BRANCH   1  19
ATOM     19  C   UNL     1      52.534 153.812  27.030  0.00  0.00    +0.103 C 
ATOM     20  C   UNL     1      53.295 153.762  25.886  0.00  0.00    +0.021 C 
ATOM     21  C   UNL     1      53.531 152.521  25.293  0.00  0.00    +0.022 C 
ATOM     22  C   UNL     1      53.020 151.363  25.827  0.00  0.00    +0.122 C 
ATOM     23  N   UNL     1      52.284 151.465  26.942  0.00  0.00    -0.146 NA
ATOM     24  N   UNL     1      52.052 152.628  27.514  0.00  0.00    -0.148 NA
ATOM     25  C   UNL     1      54.289 152.450  24.127  0.00  0.00    +0.002 C 
ATOM     26  C   UNL     1      54.789 153.609  23.582  0.00  0.00    +0.000 C 
ATOM     27  C   UNL     1      54.542 154.832  24.185  0.00  0.00    +0.000 C 
ATOM     28  C   UNL     1      53.791 154.913  25.344  0.00  0.00    +0.002 C 
ENDBRANCH   1  19
TORSDOF 1
ENDMDL
