REMARK  Name = =
REMARK  10 active torsions:
REMARK  status: ('A' for Active; 'I' for Inactive)
REMARK    1  A    between atoms: C_1  and  C_3
REMARK    2  A    between atoms: C_1  and  C_27
REMARK    3  A    between atoms: C_3  and  N_13
REMARK    4  A    between atoms: N_13  and  N_14
REMARK    5  A    between atoms: N_13  and  O_26
REMARK    6  A    between atoms: N_17  and  C_20
REMARK    7  A    between atoms: C_27  and  C_29
REMARK    8  A    between atoms: C_31  and  N_41
REMARK    9  A    between atoms: C_33  and  C_35
REMARK   10  A    between atoms: N_41  and  N_42
REMARK                            x       y       z     vdW  Elec       q    Type
REMARK                         _______ _______ _______ _____ _____    ______ ____
ROOT
ATOM      1  C   UNL     1      63.133 166.787  38.470  0.00  0.00    +0.232 C 
ATOM      2  O   UNL     1      63.380 166.769  39.742  0.00  0.00    -0.213 OA
ENDROOT
BRANCH   1   3
ATOM      3  C   UNL     1      62.461 168.003  37.946  0.00  0.00    +0.124 C 
ATOM      4  C   UNL     1      62.197 167.753  36.511  0.00  0.00    +0.042 C 
ATOM      5  C   UNL     1      61.674 168.860  35.654  0.00  0.00    +0.011 C 
ATOM      6  C   UNL     1      61.954 168.393  34.212  0.00  0.00    +0.026 C 
ATOM      7  C   UNL     1      61.608 166.980  33.978  0.00  0.00    -0.026 C 
ATOM      8  C   UNL     1      61.241 166.123  34.920  0.00  0.00    -0.009 C 
ATOM      9  C   UNL     1      61.192 166.662  36.275  0.00  0.00    -0.026 C 
ATOM     10  C   UNL     1      60.309 166.258  37.151  0.00  0.00    -0.030 C 
ATOM     11  C   UNL     1      60.232 166.886  38.517  0.00  0.00    +0.027 C 
ATOM     12  C   UNL     1      61.101 168.072  38.662  0.00  0.00    +0.026 C 
BRANCH   3  13
ATOM     13  N   UNL     1      63.095 169.231  38.199  0.00  0.00    -0.110 NA
BRANCH  13  14
ATOM     14  N   UNL     1      64.321 169.584  37.871  0.00  0.00    -0.192 NA
ATOM     15  C   UNL     1      65.411 168.707  37.992  0.00  0.00    +0.112 C 
ATOM     16  C   UNL     1      65.349 167.654  36.905  0.00  0.00    +0.110 C 
ATOM     17  N   UNL     1      65.647 168.353  35.644  0.00  0.00    -0.305 N 
ATOM     18  C   UNL     1      65.560 169.792  35.730  0.00  0.00    +0.110 C 
ATOM     19  C   UNL     1      64.359 170.167  36.529  0.00  0.00    +0.112 C 
BRANCH  17  20
ATOM     20  C   UNL     1      65.976 167.635  34.476  0.00  0.00    +0.048 C 
ATOM     21  C   UNL     1      66.073 168.325  33.283  0.00  0.00    +0.015 C 
ATOM     22  C   UNL     1      66.388 167.633  32.138  0.00  0.00    +0.001 C 
ATOM     23  C   UNL     1      66.613 166.279  32.121  0.00  0.00    +0.000 C 
ATOM     24  C   UNL     1      66.510 165.610  33.324  0.00  0.00    +0.001 C 
ATOM     25  C   UNL     1      66.194 166.286  34.494  0.00  0.00    +0.015 C 
ENDBRANCH  17  20
ENDBRANCH  13  14
BRANCH  13  26
ATOM     26  O   UNL     1      62.651 169.698  39.402  0.00  0.00    -0.297 OA
ATOM     27  H   UNL     1      61.745 169.388  39.555  0.00  0.00    +0.238 HD
ENDBRANCH  13  26
ENDBRANCH   3  13
ENDBRANCH   1   3
BRANCH   1  28
ATOM     28  C   UNL     1      63.559 165.606  37.791  0.00  0.00    +0.222 C 
ATOM     29  O   UNL     1      64.219 165.621  36.756  0.00  0.00    -0.287 OA
BRANCH  28  30
ATOM     30  C   UNL     1      63.213 164.266  38.317  0.00  0.00    +0.120 C 
ATOM     31  N   UNL     1      64.090 163.578  39.080  0.00  0.00    -0.227 NA
ATOM     32  C   UNL     1      63.820 162.375  39.603  0.00  0.00    +0.141 C 
ATOM     33  C   UNL     1      62.590 161.807  39.358  0.00  0.00    +0.031 C 
ATOM     34  C   UNL     1      61.647 162.454  38.588  0.00  0.00    -0.018 C 
ATOM     35  C   UNL     1      61.992 163.688  38.079  0.00  0.00    +0.018 C 
BRANCH  34  36
ATOM     36  C   UNL     1      60.335 161.824  38.353  0.00  0.00    +0.022 C 
ATOM     37  C   UNL     1      60.338 160.438  38.984  0.00  0.00    +0.004 C 
ATOM     38  C   UNL     1      59.095 159.691  38.585  0.00  0.00    +0.000 C 
ATOM     39  C   UNL     1      58.152 160.542  37.775  0.00  0.00    +0.000 C 
ATOM     40  C   UNL     1      58.802 161.053  36.533  0.00  0.00    +0.000 C 
ATOM     41  C   UNL     1      60.111 161.734  36.865  0.00  0.00    +0.004 C 
ENDBRANCH  34  36
BRANCH  32  42
ATOM     42  N   UNL     1      64.783 161.642  40.390  0.00  0.00    -0.260 N 
ATOM     43  H   UNL     1      65.683 161.481  40.024  0.00  0.00    +0.168 HD
BRANCH  42  44
ATOM     44  N   UNL     1      64.463 161.158  41.659  0.00  0.00    -0.202 NA
ATOM     45  C   UNL     1      63.633 160.006  41.472  0.00  0.00    +0.097 C 
ATOM     46  C   UNL     1      62.542 159.849  42.507  0.00  0.00    +0.045 C 
ATOM     47  C   UNL     1      61.702 161.083  42.464  0.00  0.00    -0.023 C 
ATOM     48  C   UNL     1      62.419 162.285  42.420  0.00  0.00    -0.008 C 
ATOM     49  C   UNL     1      61.710 163.448  42.374  0.00  0.00    -0.003 C 
ATOM     50  C   UNL     1      60.335 163.437  42.368  0.00  0.00    -0.000 C 
ATOM     51  C   UNL     1      59.637 162.221  42.412  0.00  0.00    -0.000 C 
ATOM     52  C   UNL     1      60.346 161.052  42.460  0.00  0.00    -0.004 C 
ATOM     53  C   UNL     1      63.884 162.201  42.436  0.00  0.00    +0.118 C 
ENDBRANCH  42  44
ENDBRANCH  32  42
ENDBRANCH  28  30
ENDBRANCH   1  28
TORSDOF 10
