REMARK  Name = =
REMARK  0 active torsions:
REMARK  status: ('A' for Active; 'I' for Inactive)
REMARK                            x       y       z     vdW  Elec       q    Type
REMARK                         _______ _______ _______ _____ _____    ______ ____
ROOT
ATOM      1  C   UNL     1      52.820 157.380  29.430  0.00  0.00    -0.018 C 
ATOM      2  C   UNL     1      51.589 157.801  30.095  0.00  0.00    +0.066 C 
ATOM      3  C   UNL     1      50.589 156.911  29.802  0.00  0.00    -0.014 C 
ATOM      4  C   UNL     1      51.153 155.884  28.936  0.00  0.00    -0.004 C 
ATOM      5  C   UNL     1      52.477 156.146  28.704  0.00  0.00    -0.004 C 
ATOM      6  C   UNL     1      53.260 155.306  27.896  0.00  0.00    -0.000 C 
ATOM      7  C   UNL     1      52.708 154.188  27.312  0.00  0.00    -0.000 C 
ATOM      8  C   UNL     1      51.377 153.920  27.541  0.00  0.00    -0.000 C 
ATOM      9  C   UNL     1      50.613 154.748  28.335  0.00  0.00    -0.000 C 
ATOM     10  C   UNL     1      49.315 157.109  30.328  0.00  0.00    -0.004 C 
ATOM     11  C   UNL     1      49.013 158.180  31.144  0.00  0.00    -0.001 C 
ATOM     12  C   UNL     1      50.019 159.084  31.444  0.00  0.00    -0.004 C 
ATOM     13  C   UNL     1      51.280 158.895  30.928  0.00  0.00    -0.018 C 
ENDROOT
TORSDOF 0
