REMARK  Name = =
REMARK  0 active torsions:
REMARK  status: ('A' for Active; 'I' for Inactive)
REMARK                            x       y       z     vdW  Elec       q    Type
REMARK                         _______ _______ _______ _____ _____    ______ ____
ROOT
ATOM      1  C   UNL     1      51.119 155.846  28.789  0.00  0.00    +0.000 C 
ATOM      2  C   UNL     1      51.301 156.969  29.821  0.00  0.00    +0.000 C 
ATOM      3  C   UNL     1      52.242 157.561  28.762  0.00  0.00    +0.000 C 
ATOM      4  C   UNL     1      52.613 156.087  28.524  0.00  0.00    +0.000 C 
ENDROOT
TORSDOF 0
