REMARK  Name = =
REMARK  1 active torsions:
REMARK  status: ('A' for Active; 'I' for Inactive)
REMARK    1  A    between atoms: C_1  and  C_16
REMARK                            x       y       z     vdW  Elec       q    Type
REMARK                         _______ _______ _______ _____ _____    ______ ____
ROOT
ATOM      1  C   UNL     1      51.812 158.624  29.104  0.00  0.00    +0.061 C 
ATOM      2  C   UNL     1      50.511 159.010  29.684  0.00  0.00    -0.017 C 
ATOM      3  C   UNL     1      49.817 157.884  30.061  0.00  0.00    -0.004 C 
ATOM      4  C   UNL     1      50.609 156.706  29.747  0.00  0.00    -0.004 C 
ATOM      5  C   UNL     1      51.799 157.145  29.170  0.00  0.00    -0.017 C 
ATOM      6  C   UNL     1      52.708 156.172  28.787  0.00  0.00    -0.004 C 
ATOM      7  C   UNL     1      52.503 154.819  28.942  0.00  0.00    -0.000 C 
ATOM      8  C   UNL     1      51.317 154.408  29.514  0.00  0.00    -0.000 C 
ATOM      9  C   UNL     1      50.389 155.351  29.908  0.00  0.00    -0.000 C 
ATOM     10  C   UNL     1      48.566 158.063  30.633  0.00  0.00    -0.000 C 
ATOM     11  C   UNL     1      48.048 159.317  30.813  0.00  0.00    -0.000 C 
ATOM     12  C   UNL     1      48.762 160.430  30.428  0.00  0.00    -0.000 C 
ATOM     13  C   UNL     1      50.001 160.292  29.859  0.00  0.00    -0.004 C 
ENDROOT
BRANCH   1  16
ATOM     14  C   UNL     1      53.454 161.356  30.631  0.00  0.00    +0.146 C 
ATOM     15  N   UNL     1      52.597 160.485  30.432  0.00  0.00    -0.206 NA
ATOM     16  C   UNL     1      52.914 159.237  29.945  0.00  0.00    +0.093 C 
ATOM     17  C   UNL     1      54.255 159.204  29.267  0.00  0.00    +0.077 C 
ATOM     18  S   UNL     1      55.023 160.621  30.165  0.00  0.00    -0.120 S 
ENDBRANCH   1  16
TORSDOF 1
