REMARK  Name = =
REMARK  2 active torsions:
REMARK  status: ('A' for Active; 'I' for Inactive)
REMARK    1  A    between atoms: C_1  and  C_5
REMARK    2  A    between atoms: C_5  and  N_6
REMARK                            x       y       z     vdW  Elec       q    Type
REMARK                         _______ _______ _______ _____ _____    ______ ____
ROOT
ATOM      1  C   UNL     1      51.727 155.512  28.421  0.00  0.00    +0.016 C 
ATOM      2  C   UNL     1      50.899 155.898  29.656  0.00  0.00    +0.001 C 
ATOM      3  C   UNL     1      51.418 157.316  29.385  0.00  0.00    +0.000 C 
ATOM      4  C   UNL     1      52.673 156.610  28.851  0.00  0.00    +0.001 C 
ENDROOT
BRANCH   1   5
ATOM      5  C   UNL     1      52.260 154.118  28.503  0.00  0.00    +0.065 C 
BRANCH   5   6
ATOM      6  N   UNL     1      53.330 153.966  27.554  0.00  0.00    -0.321 NA
ATOM      7  H   UNL     1      53.698 153.016  27.606  0.00  0.00    +0.119 HD
ATOM      8  H   UNL     1      54.073 154.630  27.770  0.00  0.00    +0.119 HD
ENDBRANCH   5   6
ENDBRANCH   1   5
TORSDOF 2
