REMARK  Name = =
REMARK  4 active torsions:
REMARK  status: ('A' for Active; 'I' for Inactive)
REMARK    1  A    between atoms: N_1  and  C_2
REMARK    2  A    between atoms: N_1  and  O_7
REMARK    3  A    between atoms: C_2  and  C_3
REMARK    4  A    between atoms: O_7  and  S_8
REMARK                            x       y       z     vdW  Elec       q    Type
REMARK                         _______ _______ _______ _____ _____    ______ ____
ROOT
ATOM      1  N   UNL     1      53.250 154.516  27.171  0.00  0.00    -0.164 NA
ATOM      2  H   UNL     1      53.575 153.650  27.601  0.00  0.00    +0.157 HD
ENDROOT
BRANCH   1   3
ATOM      3  C   UNL     1      51.843 154.627  27.401  0.00  0.00    +0.099 C 
BRANCH   3   4
ATOM      4  C   UNL     1      51.635 155.090  28.826  0.00  0.00    +0.018 C 
ATOM      5  C   UNL     1      50.170 155.393  29.162  0.00  0.00    +0.001 C 
ATOM      6  C   UNL     1      50.746 156.501  30.061  0.00  0.00    +0.000 C 
ATOM      7  C   UNL     1      51.872 156.579  29.024  0.00  0.00    +0.001 C 
ENDBRANCH   3   4
ENDBRANCH   1   3
BRANCH   1   8
ATOM      8  O   UNL     1      53.604 154.500  25.883  0.00  0.00    -0.138 OA
BRANCH   8   9
ATOM      9  S   UNL     1      54.113 152.963  25.394  0.00  0.00    +0.158 S 
ATOM     10  O   UNL     1      53.512 151.899  26.282  0.00  0.00    -0.039 OA
ATOM     11  O   UNL     1      55.597 152.842  25.409  0.00  0.00    -0.039 OA
ATOM     12  F   UNL     1      53.549 152.741  23.828  0.00  0.00    -0.055 F 
ENDBRANCH   8   9
ENDBRANCH   1   8
TORSDOF 4
