REMARK  Name = =
REMARK  6 active torsions:
REMARK  status: ('A' for Active; 'I' for Inactive)
REMARK    1  A    between atoms: C_1  and  N_14
REMARK    2  A    between atoms: C_1  and  C_28
REMARK    3  A    between atoms: C_16  and  C_23
REMARK    4  A    between atoms: C_18  and  C_20
REMARK    5  A    between atoms: C_20  and  O_22
REMARK    6  A    between atoms: C_23  and  O_25
REMARK                            x       y       z     vdW  Elec       q    Type
REMARK                         _______ _______ _______ _____ _____    ______ ____
ROOT
ATOM      1  C   UNL     1      50.806 159.362  29.911  0.00  0.00    +0.112 C 
ATOM      2  C   UNL     1      51.821 160.326  30.354  0.00  0.00    -0.001 C 
ATOM      3  C   UNL     1      51.594 160.688  31.687  0.00  0.00    -0.002 C 
ATOM      4  C   UNL     1      50.401 159.979  32.151  0.00  0.00    -0.002 C 
ATOM      5  C   UNL     1      49.914 159.203  31.120  0.00  0.00    -0.001 C 
ATOM      6  C   UNL     1      48.777 158.456  31.329  0.00  0.00    -0.002 C 
ATOM      7  C   UNL     1      48.155 158.498  32.549  0.00  0.00    -0.000 C 
ATOM      8  C   UNL     1      48.638 159.267  33.571  0.00  0.00    -0.000 C 
ATOM      9  C   UNL     1      49.772 160.020  33.382  0.00  0.00    -0.000 C 
ATOM     10  C   UNL     1      52.426 161.584  32.342  0.00  0.00    -0.000 C 
ATOM     11  C   UNL     1      53.502 162.137  31.681  0.00  0.00    -0.000 C 
ATOM     12  C   UNL     1      53.733 161.787  30.368  0.00  0.00    -0.000 C 
ATOM     13  C   UNL     1      52.901 160.885  29.701  0.00  0.00    -0.002 C 
ENDROOT
BRANCH   1  14
ATOM     14  N   UNL     1      51.309 158.086  29.510  0.00  0.00    -0.297 N 
ATOM     15  C   UNL     1      52.192 157.962  28.409  0.00  0.00    +0.125 C 
ATOM     16  C   UNL     1      52.723 156.837  27.971  0.00  0.00    +0.073 C 
ATOM     17  C   UNL     1      52.399 155.571  28.651  0.00  0.00    +0.012 C 
ATOM     18  C   UNL     1      51.483 155.722  29.791  0.00  0.00    +0.090 C 
ATOM     19  C   UNL     1      50.974 156.888  30.193  0.00  0.00    +0.068 C 
BRANCH  18  20
ATOM     20  C   UNL     1      51.102 154.526  30.530  0.00  0.00    +0.339 C 
ATOM     21  O   UNL     1      51.227 153.389  30.025  0.00  0.00    -0.245 OA
BRANCH  20  22
ATOM     22  O   UNL     1      50.597 154.645  31.806  0.00  0.00    -0.477 OA
ATOM     23  H   UNL     1      50.499 155.492  32.194  0.00  0.00    +0.295 HD
ENDBRANCH  20  22
ENDBRANCH  18  20
BRANCH  16  24
ATOM     24  C   UNL     1      53.638 156.853  26.800  0.00  0.00    +0.336 C 
ATOM     25  O   UNL     1      53.944 155.751  26.300  0.00  0.00    -0.245 OA
BRANCH  24  26
ATOM     26  O   UNL     1      54.124 158.017  26.289  0.00  0.00    -0.477 OA
ATOM     27  H   UNL     1      53.884 158.835  26.677  0.00  0.00    +0.295 HD
ENDBRANCH  24  26
ENDBRANCH  16  24
ENDBRANCH   1  14
BRANCH   1  30
ATOM     28  C   UNL     1      47.648 159.784  28.500  0.00  0.00    +0.146 C 
ATOM     29  N   UNL     1      48.725 159.226  28.816  0.00  0.00    -0.204 NA
ATOM     30  C   UNL     1      49.927 159.893  28.791  0.00  0.00    +0.109 C 
ATOM     31  C   UNL     1      49.728 161.403  28.948  0.00  0.00    +0.079 C 
ATOM     32  S   UNL     1      48.103 161.478  28.071  0.00  0.00    -0.120 S 
ENDBRANCH   1  30
TORSDOF 6
