REMARK  Name = =
REMARK  5 active torsions:
REMARK  status: ('A' for Active; 'I' for Inactive)
REMARK    1  A    between atoms: C_1  and  C_6
REMARK    2  A    between atoms: C_1  and  C_10
REMARK    3  A    between atoms: C_10  and  N_11
REMARK    4  A    between atoms: N_11  and  O_12
REMARK    5  A    between atoms: O_12  and  S_13
REMARK                            x       y       z     vdW  Elec       q    Type
REMARK                         _______ _______ _______ _____ _____    ______ ____
ROOT
ATOM      1  C   UNL     1      51.957 155.376  28.337  0.00  0.00    +0.027 C 
ATOM      2  C   UNL     1      50.993 155.062  29.447  0.00  0.00    +0.002 C 
ATOM      3  C   UNL     1      51.919 153.925  29.844  0.00  0.00    +0.000 C 
ATOM      4  C   UNL     1      53.041 154.718  29.165  0.00  0.00    +0.002 C 
ENDROOT
BRANCH   1   6
ATOM      5  S   UNL     1      53.565 157.473  29.151  0.00  0.00    -0.122 S 
ATOM      6  C   UNL     1      52.258 156.799  28.076  0.00  0.00    +0.066 C 
ATOM      7  C   UNL     1      51.152 157.759  28.280  0.00  0.00    +0.080 C 
ATOM      8  N   UNL     1      51.272 158.429  29.523  0.00  0.00    -0.288 NA
ATOM      9  C   UNL     1      52.582 158.921  29.720  0.00  0.00    +0.128 C 
ATOM     10  H   UNL     1      51.046 157.777  30.274  0.00  0.00    +0.124 HD
ENDBRANCH   1   6
BRANCH   1  11
ATOM     11  C   UNL     1      51.659 154.622  27.075  0.00  0.00    +0.100 C 
BRANCH  11  12
ATOM     12  N   UNL     1      52.883 154.291  26.372  0.00  0.00    -0.164 NA
ATOM     13  H   UNL     1      53.528 153.832  27.015  0.00  0.00    +0.157 HD
BRANCH  12  14
ATOM     14  O   UNL     1      52.614 153.458  25.335  0.00  0.00    -0.138 OA
BRANCH  14  15
ATOM     15  S   UNL     1      53.729 152.203  25.303  0.00  0.00    +0.158 S 
ATOM     16  O   UNL     1      53.088 150.883  25.579  0.00  0.00    -0.039 OA
ATOM     17  O   UNL     1      54.746 152.438  26.389  0.00  0.00    -0.039 OA
ATOM     18  F   UNL     1      54.477 152.113  23.800  0.00  0.00    -0.055 F 
ENDBRANCH  14  15
ENDBRANCH  12  14
ENDBRANCH  11  12
ENDBRANCH   1  11
TORSDOF 5
