REMARK  Name = =
REMARK  7 active torsions:
REMARK  status: ('A' for Active; 'I' for Inactive)
REMARK    1  A    between atoms: S_1  and  C_12
REMARK    2  A    between atoms: C_2  and  C_17
REMARK    3  A    between atoms: C_6  and  O_16
REMARK    4  A    between atoms: C_17  and  C_21
REMARK    5  A    between atoms: C_21  and  N_22
REMARK    6  A    between atoms: N_22  and  O_23
REMARK    7  A    between atoms: O_23  and  S_24
REMARK                            x       y       z     vdW  Elec       q    Type
REMARK                         _______ _______ _______ _____ _____    ______ ____
ROOT
ATOM      1  S   UNL     1      51.300 154.590  27.540  0.00  0.00    -0.193 S 
ATOM      2  C   UNL     1      52.544 155.406  28.587  0.00  0.00    +0.050 C 
ATOM      3  C   UNL     1      52.020 154.864  29.876  0.00  0.00    +0.079 C 
ATOM      4  N   UNL     1      50.629 155.048  29.972  0.00  0.00    -0.289 NA
ATOM      5  C   UNL     1      49.971 154.829  28.731  0.00  0.00    +0.111 C 
ATOM      6  H   UNL     1      51.073 155.031  26.274  0.00  0.00    +0.089 HD
ATOM      7  H   UNL     1      50.444 156.004  30.277  0.00  0.00    +0.124 HD
ENDROOT
BRANCH   1  14
ATOM      8  C   UNL     1      53.715 150.843  24.927  0.00  0.00    +0.134 C 
ATOM      9  C   UNL     1      52.917 151.190  25.997  0.00  0.00    +0.034 C 
ATOM     10  C   UNL     1      52.545 152.515  26.187  0.00  0.00    +0.007 C 
ATOM     11  C   UNL     1      52.963 153.493  25.314  0.00  0.00    +0.001 C 
ATOM     12  C   UNL     1      53.757 153.118  24.258  0.00  0.00    +0.003 C 
ATOM     13  C   UNL     1      54.144 151.823  24.039  0.00  0.00    +0.037 C 
ATOM     14  C   UNL     1      51.751 152.842  27.238  0.00  0.00    +0.007 C 
ATOM     15  C   UNL     1      51.322 151.872  28.098  0.00  0.00    +0.005 C 
ATOM     16  C   UNL     1      51.679 150.573  27.923  0.00  0.00    +0.001 C 
ATOM     17  C   UNL     1      52.482 150.210  26.871  0.00  0.00    +0.003 C 
BRANCH   8  18
ATOM     18  O   UNL     1      54.102 149.551  24.708  0.00  0.00    -0.506 OA
ATOM     19  H   UNL     1      53.825 148.873  25.293  0.00  0.00    +0.292 HD
ENDBRANCH   8  18
ENDBRANCH   1  14
BRANCH   2  20
ATOM     20  C   UNL     1      52.543 156.862  28.412  0.00  0.00    +0.026 C 
ATOM     21  C   UNL     1      51.263 157.640  28.580  0.00  0.00    +0.002 C 
ATOM     22  C   UNL     1      52.129 158.730  29.243  0.00  0.00    +0.000 C 
ATOM     23  C   UNL     1      53.006 157.582  29.657  0.00  0.00    +0.002 C 
BRANCH  20  24
ATOM     24  C   UNL     1      53.254 157.294  27.151  0.00  0.00    +0.100 C 
BRANCH  24  25
ATOM     25  N   UNL     1      54.140 156.352  26.590  0.00  0.00    -0.164 NA
ATOM     26  H   UNL     1      54.098 155.484  27.123  0.00  0.00    +0.157 HD
BRANCH  25  27
ATOM     27  O   UNL     1      53.780 156.114  25.307  0.00  0.00    -0.138 OA
BRANCH  27  28
ATOM     28  S   UNL     1      54.611 157.089  24.232  0.00  0.00    +0.158 S 
ATOM     29  O   UNL     1      55.570 157.968  25.001  0.00  0.00    -0.039 OA
ATOM     30  O   UNL     1      55.431 156.281  23.265  0.00  0.00    -0.039 OA
ATOM     31  F   UNL     1      53.562 158.110  23.390  0.00  0.00    -0.055 F 
ENDBRANCH  27  28
ENDBRANCH  25  27
ENDBRANCH  24  25
ENDBRANCH  20  24
ENDBRANCH   2  20
TORSDOF 7
