REMARK  Name = =
REMARK  8 active torsions:
REMARK  status: ('A' for Active; 'I' for Inactive)
REMARK    1  A    between atoms: S_1  and  C_13
REMARK    2  A    between atoms: C_2  and  C_20
REMARK    3  A    between atoms: C_7  and  O_17
REMARK    4  A    between atoms: O_17  and  C_18
REMARK    5  A    between atoms: C_20  and  C_24
REMARK    6  A    between atoms: C_24  and  N_25
REMARK    7  A    between atoms: N_25  and  O_26
REMARK    8  A    between atoms: O_26  and  S_27
REMARK                            x       y       z     vdW  Elec       q    Type
REMARK                         _______ _______ _______ _____ _____    ______ ____
ROOT
ATOM      1  S   UNL     1      50.754 155.425  28.603  0.00  0.00    -0.141 S 
ATOM      2  C   UNL     1      51.057 156.739  29.536  0.00  0.00    +0.061 C 
ATOM      3  C   UNL     1      49.697 157.347  29.771  0.00  0.00    +0.080 C 
ATOM      4  N   UNL     1      48.724 156.338  29.915  0.00  0.00    -0.288 NA
ATOM      5  C   UNL     1      49.057 155.068  29.483  0.00  0.00    +0.123 C 
ATOM      6  H   UNL     1      47.898 156.632  29.393  0.00  0.00    +0.124 HD
ENDROOT
BRANCH   1  13
ATOM      7  C   UNL     1      53.533 153.056  25.054  0.00  0.00    +0.145 C 
ATOM      8  C   UNL     1      52.817 152.975  26.236  0.00  0.00    +0.035 C 
ATOM      9  C   UNL     1      52.194 154.087  26.785  0.00  0.00    +0.008 C 
ATOM     10  C   UNL     1      52.276 155.283  26.165  0.00  0.00    +0.001 C 
ATOM     11  C   UNL     1      52.986 155.376  24.988  0.00  0.00    +0.003 C 
ATOM     12  C   UNL     1      53.614 154.299  24.418  0.00  0.00    +0.037 C 
ATOM     13  C   UNL     1      51.450 154.060  27.976  0.00  0.00    +0.018 C 
ATOM     14  C   UNL     1      51.405 152.808  28.540  0.00  0.00    +0.005 C 
ATOM     15  C   UNL     1      52.006 151.686  28.028  0.00  0.00    +0.001 C 
ATOM     16  C   UNL     1      52.717 151.773  26.867  0.00  0.00    +0.003 C 
BRANCH   7  17
ATOM     17  O   UNL     1      54.169 152.049  24.443  0.00  0.00    -0.450 OA
BRANCH  17  18
ATOM     18  C   UNL     1      54.672 150.848  24.653  0.00  0.00    +0.180 C 
ATOM     19  C   UNL     1      53.982 149.706  24.621  0.00  0.00    +0.044 C 
ENDBRANCH  17  18
ENDBRANCH   7  17
ENDBRANCH   1  13
BRANCH   2  20
ATOM     20  C   UNL     1      52.060 157.780  29.089  0.00  0.00    +0.027 C 
ATOM     21  C   UNL     1      52.531 157.632  27.660  0.00  0.00    +0.002 C 
ATOM     22  C   UNL     1      53.995 157.746  28.108  0.00  0.00    +0.000 C 
ATOM     23  C   UNL     1      53.458 157.677  29.536  0.00  0.00    +0.002 C 
BRANCH  20  24
ATOM     24  C   UNL     1      51.535 159.198  29.233  0.00  0.00    +0.100 C 
BRANCH  24  25
ATOM     25  N   UNL     1      52.087 159.863  30.382  0.00  0.00    -0.164 NA
ATOM     26  H   UNL     1      52.143 160.864  30.192  0.00  0.00    +0.157 HD
BRANCH  25  27
ATOM     27  O   UNL     1      51.312 159.662  31.487  0.00  0.00    -0.138 OA
BRANCH  27  28
ATOM     28  S   UNL     1      50.007 160.711  31.516  0.00  0.00    +0.158 S 
ATOM     29  O   UNL     1      50.251 161.925  32.336  0.00  0.00    -0.039 OA
ATOM     30  O   UNL     1      49.609 161.150  30.125  0.00  0.00    -0.039 OA
ATOM     31  F   UNL     1      48.692 159.859  32.139  0.00  0.00    -0.055 F 
ENDBRANCH  27  28
ENDBRANCH  25  27
ENDBRANCH  24  25
ENDBRANCH  20  24
ENDBRANCH   2  20
TORSDOF 8
REMARK  Name = =
REMARK  8 active torsions:
REMARK  status: ('A' for Active; 'I' for Inactive)
REMARK    1  A    between atoms: S_1  and  C_13
REMARK    2  A    between atoms: C_2  and  C_20
REMARK    3  A    between atoms: C_7  and  O_17
REMARK    4  A    between atoms: O_17  and  C_18
REMARK    5  A    between atoms: C_20  and  C_24
REMARK    6  A    between atoms: C_24  and  N_25
REMARK    7  A    between atoms: N_25  and  O_26
REMARK    8  A    between atoms: O_26  and  S_27
REMARK                            x       y       z     vdW  Elec       q    Type
REMARK                         _______ _______ _______ _____ _____    ______ ____
ROOT
ATOM      1  H   UNK     1      50.037 156.327  27.125  0.00  0.00    +0.000 HD
ENDROOT
TORSDOF 0
