REMARK  Name = =
REMARK  11 active torsions:
REMARK  status: ('A' for Active; 'I' for Inactive)
REMARK    1  A    between atoms: S_1  and  C_13
REMARK    2  A    between atoms: C_2  and  C_20
REMARK    3  A    between atoms: C_7  and  O_17
REMARK    4  A    between atoms: O_17  and  C_18
REMARK    5  A    between atoms: C_20  and  C_24
REMARK    6  A    between atoms: C_24  and  N_25
REMARK    7  A    between atoms: N_25  and  O_26
REMARK    8  A    between atoms: N_25  and  O_35
REMARK    9  A    between atoms: O_26  and  C_27
REMARK   10  A    between atoms: C_27  and  C_29
REMARK   11  A    between atoms: O_35  and  S_36
REMARK                            x       y       z     vdW  Elec       q    Type
REMARK                         _______ _______ _______ _____ _____    ______ ____
ROOT
ATOM      1  C   UNL     1      52.420 157.321  28.279  0.00  0.00    +0.031 C 
ATOM      2  C   UNL     1      51.607 156.296  28.975  0.00  0.00    +0.002 C 
ATOM      3  C   UNL     1      52.789 155.805  29.783  0.00  0.00    +0.000 C 
ATOM      4  C   UNL     1      53.637 156.789  28.991  0.00  0.00    +0.002 C 
ENDROOT
BRANCH   1   6
ATOM      5  S   UNL     1      52.434 155.845  25.937  0.00  0.00    -0.141 S 
ATOM      6  C   UNL     1      52.630 157.224  26.791  0.00  0.00    +0.061 C 
ATOM      7  C   UNL     1      54.093 157.620  26.538  0.00  0.00    +0.080 C 
ATOM      8  N   UNL     1      54.685 156.720  25.630  0.00  0.00    -0.288 NA
ATOM      9  C   UNL     1      53.736 156.222  24.683  0.00  0.00    +0.123 C 
ATOM     10  H   UNL     1      55.076 155.935  26.151  0.00  0.00    +0.124 HD
BRANCH   5  17
ATOM     11  C   UNL     1      53.817 151.000  25.103  0.00  0.00    +0.145 C 
ATOM     12  C   UNL     1      53.029 151.895  25.800  0.00  0.00    +0.035 C 
ATOM     13  C   UNL     1      53.067 153.267  25.561  0.00  0.00    +0.008 C 
ATOM     14  C   UNL     1      53.949 153.663  24.575  0.00  0.00    +0.001 C 
ATOM     15  C   UNL     1      54.741 152.769  23.872  0.00  0.00    +0.003 C 
ATOM     16  C   UNL     1      54.672 151.438  24.142  0.00  0.00    +0.037 C 
ATOM     17  C   UNL     1      52.257 154.171  26.256  0.00  0.00    +0.018 C 
ATOM     18  C   UNL     1      51.424 153.601  27.183  0.00  0.00    +0.005 C 
ATOM     19  C   UNL     1      51.361 152.257  27.441  0.00  0.00    +0.001 C 
ATOM     20  C   UNL     1      52.170 151.395  26.745  0.00  0.00    +0.003 C 
BRANCH  11  21
ATOM     21  O   UNL     1      53.726 149.652  25.395  0.00  0.00    -0.450 OA
BRANCH  21  22
ATOM     22  C   UNL     1      54.284 148.734  24.545  0.00  0.00    +0.180 C 
ATOM     23  C   UNL     1      53.520 147.910  23.867  0.00  0.00    +0.044 C 
ENDBRANCH  21  22
ENDBRANCH  11  21
ENDBRANCH   5  17
ENDBRANCH   1   6
BRANCH   1  24
ATOM     24  C   UNL     1      52.146 158.760  28.701  0.00  0.00    +0.148 C 
BRANCH  24  25
ATOM     25  N   UNL     1      51.351 158.915  29.867  0.00  0.00    +0.024 NA
BRANCH  25  26
ATOM     26  O   UNL     1      51.882 159.610  30.903  0.00  0.00    -0.334 OA
BRANCH  26  27
ATOM     27  C   UNL     1      51.546 160.878  31.295  0.00  0.00    +0.361 C 
ATOM     28  O   UNL     1      52.225 161.831  30.835  0.00  0.00    -0.243 OA
BRANCH  27  29
ATOM     29  C   UNL     1      50.459 161.191  32.204  0.00  0.00    +0.077 C 
ATOM     30  C   UNL     1      49.935 162.457  32.292  0.00  0.00    +0.006 C 
ATOM     31  C   UNL     1      48.895 162.770  33.156  0.00  0.00    +0.000 C 
ATOM     32  C   UNL     1      48.383 161.767  33.946  0.00  0.00    +0.000 C 
ATOM     33  C   UNL     1      48.884 160.468  33.890  0.00  0.00    +0.000 C 
ATOM     34  C   UNL     1      49.930 160.207  33.002  0.00  0.00    +0.006 C 
ENDBRANCH  27  29
ENDBRANCH  26  27
ENDBRANCH  25  26
BRANCH  25  35
ATOM     35  O   UNL     1      50.151 159.458  29.564  0.00  0.00    -0.098 OA
BRANCH  35  36
ATOM     36  S   UNL     1      48.990 158.436  30.271  0.00  0.00    +0.161 S 
ATOM     37  O   UNL     1      48.001 159.307  30.986  0.00  0.00    -0.039 OA
ATOM     38  O   UNL     1      48.325 157.617  29.199  0.00  0.00    -0.039 OA
ATOM     39  F   UNL     1      49.719 157.396  31.358  0.00  0.00    -0.054 F 
ENDBRANCH  35  36
ENDBRANCH  25  35
ENDBRANCH  24  25
ENDBRANCH   1  24
TORSDOF 11
REMARK  Name = =
REMARK  11 active torsions:
REMARK  status: ('A' for Active; 'I' for Inactive)
REMARK    1  A    between atoms: S_1  and  C_13
REMARK    2  A    between atoms: C_2  and  C_20
REMARK    3  A    between atoms: C_7  and  O_17
REMARK    4  A    between atoms: O_17  and  C_18
REMARK    5  A    between atoms: C_20  and  C_24
REMARK    6  A    between atoms: C_24  and  N_25
REMARK    7  A    between atoms: N_25  and  O_26
REMARK    8  A    between atoms: N_25  and  O_35
REMARK    9  A    between atoms: O_26  and  C_27
REMARK   10  A    between atoms: C_27  and  C_29
REMARK   11  A    between atoms: O_35  and  S_36
REMARK                            x       y       z     vdW  Elec       q    Type
REMARK                         _______ _______ _______ _____ _____    ______ ____
ROOT
ATOM      1  H   UNK     1      50.855 156.130  24.851  0.00  0.00    +0.000 HD
ENDROOT
TORSDOF 0
