REMARK  Name = =
REMARK  4 active torsions:
REMARK  status: ('A' for Active; 'I' for Inactive)
REMARK    1  A    between atoms: C_3  and  N_28
REMARK    2  A    between atoms: C_5  and  O_29
REMARK    3  A    between atoms: C_6  and  C_25
REMARK    4  A    between atoms: C_7  and  C_8
REMARK                            x       y       z     vdW  Elec       q    Type
REMARK                         _______ _______ _______ _____ _____    ______ ____
ROOT
ATOM      1 CL   UNL     1      -5.320  -3.852  31.691  0.00  0.00    -0.081 Cl
ATOM      2  C   UNL     1      -5.174  -2.121  31.471  0.00  0.00    +0.067 C 
ATOM      3  C   UNL     1      -6.016  -1.398  32.288  0.00  0.00    +0.055 C 
ATOM      4  C   UNL     1      -6.095  -0.066  32.139  0.00  0.00    +0.052 C 
ATOM      5  C   UNL     1      -5.355   0.616  31.174  0.00  0.00    +0.139 C 
ATOM      6  C   UNL     1      -4.473  -0.110  30.302  0.00  0.00    +0.084 C 
ATOM      7  C   UNL     1      -4.398  -1.477  30.488  0.00  0.00    -0.003 C 
ENDROOT
BRANCH   7   8
ATOM      8  C   UNL     1      -3.443  -2.329  29.808  0.00  0.00    +0.023 C 
ATOM      9  C   UNL     1      -1.986  -2.140  29.926  0.00  0.00    +0.004 C 
ATOM     10  C   UNL     1      -1.243  -3.491  30.259  0.00  0.00    +0.000 C 
ATOM     11  C   UNL     1      -1.300  -4.360  29.091  0.00  0.00    +0.000 C 
ATOM     12  C   UNL     1      -1.068  -5.814  29.239  0.00  0.00    +0.005 C 
ATOM     13  C   UNL     1       0.174  -6.314  28.595  0.00  0.00    +0.057 C 
ATOM     14  C   UNL     1       1.205  -6.881  29.479  0.00  0.00    +0.118 C 
ATOM     15  O   UNL     1       1.318  -7.962  28.586  0.00  0.00    -0.356 OA
ATOM     16  C   UNL     1       0.155  -7.601  27.856  0.00  0.00    +0.144 C 
ATOM     17  C   UNL     1       0.726  -7.327  30.828  0.00  0.00    +0.030 C 
ATOM     18  C   UNL     1      -0.716  -7.679  30.872  0.00  0.00    +0.002 C 
ATOM     19  C   UNL     1      -1.574  -6.538  30.385  0.00  0.00    +0.000 C 
ATOM     20  C   UNL     1      -3.040  -6.917  30.396  0.00  0.00    +0.000 C 
ATOM     21  C   UNL     1      -3.850  -5.817  31.112  0.00  0.00    +0.000 C 
ATOM     22  C   UNL     1      -3.210  -4.537  30.916  0.00  0.00    +0.000 C 
ATOM     23  C   UNL     1      -3.773  -3.795  29.995  0.00  0.00    +0.004 C 
ATOM     24  C   UNL     1      -1.958  -3.945  31.514  0.00  0.00    +0.000 C 
ENDBRANCH   7   8
BRANCH   6  25
ATOM     25  C   UNL     1      -3.917   0.644  29.223  0.00  0.00    +0.245 C 
ATOM     26  O   UNL     1      -4.532   1.801  29.033  0.00  0.00    -0.270 OA
ATOM     27  N   UNL     1      -2.927   0.523  28.293  0.00  0.00    -0.325 N 
ATOM     28  H   UNL     1      -2.359  -0.281  28.281  0.00  0.00    +0.145 HD
ATOM     29  H   UNL     1      -2.780   1.240  27.634  0.00  0.00    +0.145 HD
ENDBRANCH   6  25
BRANCH   3  30
ATOM     30  N   UNL     1      -6.812  -2.046  33.301  0.00  0.00    -0.356 N 
ATOM     31  H   UNL     1      -6.761  -3.022  33.418  0.00  0.00    +0.142 HD
ATOM     32  H   UNL     1      -7.407  -1.512  33.876  0.00  0.00    +0.142 HD
ENDBRANCH   3  30
BRANCH   5  33
ATOM     33  O   UNL     1      -5.444   1.925  31.044  0.00  0.00    -0.505 OA
ATOM     34  H   UNL     1      -6.014   2.414  31.604  0.00  0.00    +0.292 HD
ENDBRANCH   5  33
TORSDOF 4
