REMARK  Name = =
REMARK  8 active torsions:
REMARK  status: ('A' for Active; 'I' for Inactive)
REMARK    1  A    between atoms: C_1  and  C_24
REMARK    2  A    between atoms: C_2  and  S_30
REMARK    3  A    between atoms: C_20  and  N_28
REMARK    4  A    between atoms: C_22  and  O_29
REMARK    5  A    between atoms: C_23  and  C_25
REMARK    6  A    between atoms: S_30  and  C_31
REMARK    7  A    between atoms: C_31  and  O_41
REMARK    8  A    between atoms: S_32  and  C_33
REMARK                            x       y       z     vdW  Elec       q    Type
REMARK                         _______ _______ _______ _____ _____    ______ ____
ROOT
ATOM      1  C   UNL     1      -1.677  -4.859  29.314  0.00  0.00    +0.034 C 
ATOM      2  C   UNL     1      -2.077  -4.798  30.761  0.00  0.00    +0.059 C 
ATOM      3  C   UNL     1      -3.618  -4.785  30.916  0.00  0.00    +0.011 C 
ATOM      4  C   UNL     1      -3.883  -3.996  32.173  0.00  0.00    +0.001 C 
ATOM      5  C   UNL     1      -4.765  -2.850  32.121  0.00  0.00    +0.005 C 
ATOM      6  C   UNL     1      -5.762  -2.702  33.190  0.00  0.00    +0.057 C 
ATOM      7  C   UNL     1      -6.626  -1.514  33.179  0.00  0.00    +0.118 C 
ATOM      8  O   UNL     1      -7.773  -2.310  33.000  0.00  0.00    -0.356 OA
ATOM      9  C   UNL     1      -7.042  -3.499  33.106  0.00  0.00    +0.144 C 
ATOM     10  C   UNL     1      -6.478  -0.539  32.081  0.00  0.00    +0.030 C 
ATOM     11  C   UNL     1      -6.023  -1.183  30.811  0.00  0.00    +0.002 C 
ATOM     12  C   UNL     1      -4.744  -1.884  31.053  0.00  0.00    +0.000 C 
ATOM     13  C   UNL     1      -3.511  -1.207  30.643  0.00  0.00    +0.000 C 
ATOM     14  C   UNL     1      -3.248  -1.629  29.174  0.00  0.00    +0.000 C 
ATOM     15  C   UNL     1      -3.289  -3.110  29.219  0.00  0.00    +0.000 C 
ATOM     16  C   UNL     1      -2.127  -3.558  28.685  0.00  0.00    +0.005 C 
ATOM     17  C   UNL     1      -4.215  -4.177  29.689  0.00  0.00    +0.001 C 
ENDROOT
BRANCH   1  24
ATOM     18 CL   UNL     1       0.351  -2.749  29.853  0.00  0.00    -0.081 Cl
ATOM     19  C   UNL     1       0.691  -4.320  29.200  0.00  0.00    +0.067 C 
ATOM     20  C   UNL     1       2.015  -4.588  28.910  0.00  0.00    +0.055 C 
ATOM     21  C   UNL     1       2.367  -5.816  28.458  0.00  0.00    +0.052 C 
ATOM     22  C   UNL     1       1.413  -6.781  28.289  0.00  0.00    +0.139 C 
ATOM     23  C   UNL     1       0.066  -6.499  28.584  0.00  0.00    +0.084 C 
ATOM     24  C   UNL     1      -0.330  -5.273  29.047  0.00  0.00    -0.003 C 
BRANCH  23  25
ATOM     25  C   UNL     1      -0.864  -7.563  28.277  0.00  0.00    +0.245 C 
ATOM     26  O   UNL     1      -2.106  -7.404  28.240  0.00  0.00    -0.270 OA
ATOM     27  N   UNL     1      -0.347  -8.885  27.995  0.00  0.00    -0.325 N 
ATOM     28  H   UNL     1       0.624  -9.048  28.015  0.00  0.00    +0.145 HD
ATOM     29  H   UNL     1      -0.966  -9.621  27.784  0.00  0.00    +0.145 HD
ENDBRANCH  23  25
BRANCH  20  30
ATOM     30  N   UNL     1       3.003  -3.570  29.083  0.00  0.00    -0.356 N 
ATOM     31  H   UNL     1       2.740  -2.680  29.412  0.00  0.00    +0.142 HD
ATOM     32  H   UNL     1       3.946  -3.759  28.873  0.00  0.00    +0.142 HD
ENDBRANCH  20  30
BRANCH  22  33
ATOM     33  O   UNL     1       1.810  -8.018  27.830  0.00  0.00    -0.505 OA
ATOM     34  H   UNL     1       2.713  -8.180  27.641  0.00  0.00    +0.292 HD
ENDBRANCH  22  33
ENDBRANCH   1  24
BRANCH   2  35
ATOM     35  S   UNL     1      -1.288  -5.690  32.009  0.00  0.00    -0.072 S 
BRANCH  35  36
ATOM     36  C   UNL     1      -0.631  -7.270  31.816  0.00  0.00    +0.180 C 
ATOM     37  S   UNL     1       0.803  -7.632  32.521  0.00  0.00    -0.118 S 
ATOM     38  H   UNL     1       1.624  -8.020  31.508  0.00  0.00    +0.105 HD
BRANCH  37  39
ATOM     39  C   UNL     1       1.754  -6.481  33.501  0.00  0.00    +0.047 C 
ATOM     40  C   UNL     1       2.765  -5.753  32.891  0.00  0.00    +0.146 C 
ATOM     41  C   UNL     1       3.552  -4.852  33.577  0.00  0.00    +0.037 C 
ATOM     42  C   UNL     1       3.362  -4.625  34.951  0.00  0.00    +0.037 C 
ATOM     43  C   UNL     1       2.361  -5.351  35.536  0.00  0.00    +0.007 C 
ATOM     44  C   UNL     1       1.558  -6.265  34.856  0.00  0.00    +0.008 C 
ATOM     45 BR   UNL     1       4.460  -3.373  35.878  0.00  0.00    -0.049 Br
ATOM     46  F   UNL     1       2.978  -5.957  31.560  0.00  0.00    -0.204 F 
ENDBRANCH  37  39
BRANCH  36  47
ATOM     47  O   UNL     1      -1.231  -8.278  31.104  0.00  0.00    -0.497 OA
ATOM     48  H   UNL     1      -2.053  -8.127  30.680  0.00  0.00    +0.293 HD
ENDBRANCH  36  47
ENDBRANCH  35  36
ENDBRANCH   2  35
TORSDOF 8
