REMARK  Name = =
REMARK  2 active torsions:
REMARK  status: ('A' for Active; 'I' for Inactive)
REMARK    1  A    between atoms: C_1  and  S_7
REMARK    2  A    between atoms: C_4  and  O_8
REMARK                            x       y       z     vdW  Elec       q    Type
REMARK                         _______ _______ _______ _____ _____    ______ ____
ROOT
ATOM      1  C   UNL     1      50.899 157.442  29.788  0.00  0.00    +0.022 C 
ATOM      2  C   UNL     1      51.736 158.556  29.812  0.00  0.00    +0.009 C 
ATOM      3  C   UNL     1      51.287 159.775  30.284  0.00  0.00    +0.037 C 
ATOM      4  C   UNL     1      49.993 159.903  30.741  0.00  0.00    +0.134 C 
ATOM      5  C   UNL     1      49.186 158.787  30.706  0.00  0.00    +0.037 C 
ATOM      6  C   UNL     1      49.604 157.558  30.242  0.00  0.00    +0.009 C 
ENDROOT
BRANCH   1   7
ATOM      7  S   UNL     1      51.550 155.911  29.165  0.00  0.00    -0.141 S 
ATOM      8  H   UNL     1      52.845 156.088  28.790  0.00  0.00    +0.107 HD
ENDBRANCH   1   7
BRANCH   4   9
ATOM      9  O   UNL     1      49.526 161.134  31.224  0.00  0.00    -0.506 OA
ATOM     10  H   UNL     1      50.095 161.878  31.237  0.00  0.00    +0.292 HD
ENDBRANCH   4   9
TORSDOF 2
