REMARK  Name = =
REMARK  0 active torsions:
REMARK  status: ('A' for Active; 'I' for Inactive)
REMARK                            x       y       z     vdW  Elec       q    Type
REMARK                         _______ _______ _______ _____ _____    ______ ____
ROOT
ATOM      1  N   UNL     1      52.791 156.129  28.105  0.00  0.00    -0.297 NA
ATOM      2  C   UNL     1      52.818 154.749  27.592  0.00  0.00    +0.070 C 
ATOM      3  C   UNL     1      51.343 154.692  27.997  0.00  0.00    +0.034 C 
ATOM      4  C   UNL     1      51.857 155.610  29.115  0.00  0.00    +0.070 C 
ATOM      5  H   UNL     1      53.679 156.472  28.472  0.00  0.00    +0.123 HD
ENDROOT
TORSDOF 0
