REMARK  Name = =
REMARK  3 active torsions:
REMARK  status: ('A' for Active; 'I' for Inactive)
REMARK    1  A    between atoms: C_1  and  S_8
REMARK    2  A    between atoms: C_4  and  O_7
REMARK    3  A    between atoms: S_8  and  C_9
REMARK                            x       y       z     vdW  Elec       q    Type
REMARK                         _______ _______ _______ _____ _____    ______ ____
ROOT
ATOM      1  C   UNL     1      52.159 156.294  28.488  0.00  0.00    +0.025 C 
ATOM      2  C   UNL     1      52.843 156.963  27.506  0.00  0.00    +0.009 C 
ATOM      3  C   UNL     1      52.992 156.436  26.228  0.00  0.00    +0.037 C 
ATOM      4  C   UNL     1      52.436 155.208  25.940  0.00  0.00    +0.134 C 
ATOM      5  C   UNL     1      51.745 154.515  26.906  0.00  0.00    +0.037 C 
ATOM      6  C   UNL     1      51.616 155.075  28.178  0.00  0.00    +0.009 C 
ENDROOT
BRANCH   4   7
ATOM      7  O   UNL     1      52.566 154.658  24.681  0.00  0.00    -0.506 OA
ATOM      8  H   UNL     1      53.034 155.120  24.014  0.00  0.00    +0.292 HD
ENDBRANCH   4   7
BRANCH   1   9
ATOM      9  S   UNL     1      51.998 157.002  30.093  0.00  0.00    -0.115 S 
BRANCH   9  10
ATOM     10  C   UNL     1      51.092 158.521  30.155  0.00  0.00    +0.052 C 
ATOM     11  C   UNL     1      51.985 159.760  30.285  0.00  0.00    +0.011 C 
ATOM     12  C   UNL     1      51.132 160.799  30.997  0.00  0.00    +0.001 C 
ATOM     13  C   UNL     1      49.709 160.638  30.591  0.00  0.00    +0.000 C 
ATOM     14  C   UNL     1      49.499 160.094  29.215  0.00  0.00    +0.001 C 
ATOM     15  C   UNL     1      50.193 158.779  28.974  0.00  0.00    +0.011 C 
ENDBRANCH   9  10
ENDBRANCH   1   9
TORSDOF 3
