REMARK  Name = =
REMARK  2 active torsions:
REMARK  status: ('A' for Active; 'I' for Inactive)
REMARK    1  A    between atoms: C_1  and  N_13
REMARK    2  A    between atoms: C_2  and  O_17
REMARK                            x       y       z     vdW  Elec       q    Type
REMARK                         _______ _______ _______ _____ _____    ______ ____
ROOT
ATOM      1  C   UNL     1      52.178 155.641  28.050  0.00  0.00    +0.125 C 
ATOM      2  C   UNL     1      51.944 154.463  28.595  0.00  0.00    +0.190 C 
ATOM      3  C   UNL     1      52.307 153.210  27.913  0.00  0.00    +0.230 C 
ATOM      4  O   UNL     1      52.079 152.101  28.444  0.00  0.00    -0.283 OA
ATOM      5  C   UNL     1      52.942 153.215  26.606  0.00  0.00    +0.045 C 
ATOM      6  C   UNL     1      53.195 154.450  26.022  0.00  0.00    +0.043 C 
ATOM      7  C   UNL     1      53.795 154.477  24.786  0.00  0.00    +0.003 C 
ATOM      8  C   UNL     1      54.158 153.329  24.099  0.00  0.00    +0.000 C 
ATOM      9  C   UNL     1      53.890 152.127  24.714  0.00  0.00    +0.000 C 
ATOM     10  C   UNL     1      53.295 152.068  25.943  0.00  0.00    +0.003 C 
ATOM     11  C   UNL     1      52.812 155.658  26.743  0.00  0.00    +0.212 C 
ATOM     12  O   UNL     1      53.041 156.776  26.213  0.00  0.00    -0.285 OA
ENDROOT
BRANCH   1  13
ATOM     13  N   UNL     1      51.824 156.858  28.711  0.00  0.00    -0.302 N 
ATOM     14  C   UNL     1      52.577 158.047  29.067  0.00  0.00    +0.093 C 
ATOM     15  C   UNL     1      51.626 158.207  30.247  0.00  0.00    +0.043 C 
ATOM     16  C   UNL     1      50.670 157.469  29.303  0.00  0.00    +0.093 C 
ENDBRANCH   1  13
BRANCH   2  17
ATOM     17  O   UNL     1      51.336 154.421  29.847  0.00  0.00    -0.502 OA
ATOM     18  H   UNL     1      51.104 155.218  30.282  0.00  0.00    +0.292 HD
ENDBRANCH   2  17
TORSDOF 2
