REMARK  Name = =
REMARK  4 active torsions:
REMARK  status: ('A' for Active; 'I' for Inactive)
REMARK    1  A    between atoms: N_1  and  S_19
REMARK    2  A    between atoms: S_19  and  C_20
REMARK    3  A    between atoms: S_19  and  C_27
REMARK    4  A    between atoms: C_23  and  O_26
REMARK                            x       y       z     vdW  Elec       q    Type
REMARK                         _______ _______ _______ _____ _____    ______ ____
ROOT
ATOM      1  N   UNL     1      54.212 153.405  24.569  0.00  0.00    -0.244 NA
ATOM      2  C   UNL     1      54.607 152.256  25.343  0.00  0.00    +0.075 C 
ATOM      3  C   UNL     1      53.994 152.330  26.676  0.00  0.00    +0.045 C 
ATOM      4  C   UNL     1      52.505 152.024  26.485  0.00  0.00    +0.065 C 
ATOM      5  C   UNL     1      51.671 152.096  27.701  0.00  0.00    +0.174 C 
ATOM      6  O   UNL     1      51.033 150.856  27.869  0.00  0.00    -0.479 OA
ATOM      7  C   UNL     1      51.657 149.923  27.013  0.00  0.00    +0.134 C 
ATOM      8  C   UNL     1      52.527 150.580  26.216  0.00  0.00    +0.011 C 
ATOM      9  C   UNL     1      53.347 150.091  25.253  0.00  0.00    -0.022 C 
ATOM     10  C   UNL     1      53.287 148.718  25.046  0.00  0.00    -0.004 C 
ATOM     11  C   UNL     1      52.407 147.953  25.829  0.00  0.00    +0.003 C 
ATOM     12  C   UNL     1      51.606 148.549  26.797  0.00  0.00    +0.037 C 
ATOM     13  C   UNL     1      54.274 151.019  24.520  0.00  0.00    +0.043 C 
ATOM     14  C   UNL     1      52.343 152.688  28.885  0.00  0.00    +0.070 C 
ATOM     15  C   UNL     1      53.325 153.747  28.486  0.00  0.00    -0.027 C 
ATOM     16  C   UNL     1      54.123 153.567  27.413  0.00  0.00    -0.029 C 
ATOM     17  C   UNL     1      51.947 152.766  25.302  0.00  0.00    +0.026 C 
ATOM     18  C   UNL     1      52.860 153.800  24.740  0.00  0.00    +0.082 C 
ENDROOT
BRANCH   1  19
ATOM     19  S   UNL     1      55.271 154.304  23.917  0.00  0.00    -0.160 S 
ATOM     20  H   UNL     1      56.380 153.920  24.604  0.00  0.00    +0.103 HD
BRANCH  19  21
ATOM     21  C   UNL     1      55.163 155.911  24.275  0.00  0.00    +0.018 C 
ATOM     22  C   UNL     1      53.982 156.622  24.211  0.00  0.00    +0.009 C 
ATOM     23  C   UNL     1      53.892 157.961  24.509  0.00  0.00    +0.037 C 
ATOM     24  C   UNL     1      55.008 158.656  24.892  0.00  0.00    +0.134 C 
ATOM     25  C   UNL     1      56.209 157.998  24.972  0.00  0.00    +0.037 C 
ATOM     26  C   UNL     1      56.276 156.657  24.669  0.00  0.00    +0.009 C 
BRANCH  24  27
ATOM     27  O   UNL     1      54.938 160.010  25.198  0.00  0.00    -0.506 OA
ATOM     28  H   UNL     1      54.118 160.461  25.144  0.00  0.00    +0.292 HD
ENDBRANCH  24  27
ENDBRANCH  19  21
BRANCH  19  29
ATOM     29  C   UNL     1      55.759 153.924  22.365  0.00  0.00    +0.044 C 
ATOM     30  C   UNL     1      56.284 155.093  21.540  0.00  0.00    +0.011 C 
ATOM     31  C   UNL     1      56.708 154.652  20.168  0.00  0.00    +0.001 C 
ATOM     32  C   UNL     1      55.643 153.889  19.432  0.00  0.00    +0.000 C 
ATOM     33  C   UNL     1      54.389 153.868  20.273  0.00  0.00    +0.001 C 
ATOM     34  C   UNL     1      54.688 153.189  21.617  0.00  0.00    +0.011 C 
ENDBRANCH  19  29
ENDBRANCH   1  19
TORSDOF 4
