REMARK  Name = =
REMARK  5 active torsions:
REMARK  status: ('A' for Active; 'I' for Inactive)
REMARK    1  A    between atoms: C_1  and  N_13
REMARK    2  A    between atoms: C_2  and  O_20
REMARK    3  A    between atoms: C_14  and  S_17
REMARK    4  A    between atoms: S_17  and  C_18
REMARK    5  A    between atoms: C_18  and  N_19
REMARK                            x       y       z     vdW  Elec       q    Type
REMARK                         _______ _______ _______ _____ _____    ______ ____
ROOT
ATOM      1  C   UNL     1      52.844 155.103  26.923  0.00  0.00    +0.125 C 
ATOM      2  C   UNL     1      52.493 153.896  27.348  0.00  0.00    +0.190 C 
ATOM      3  C   UNL     1      52.784 152.759  26.490  0.00  0.00    +0.230 C 
ATOM      4  O   UNL     1      52.449 151.620  26.899  0.00  0.00    -0.283 OA
ATOM      5  C   UNL     1      53.436 152.869  25.200  0.00  0.00    +0.045 C 
ATOM      6  C   UNL     1      53.799 154.121  24.762  0.00  0.00    +0.043 C 
ATOM      7  C   UNL     1      54.426 154.261  23.529  0.00  0.00    +0.003 C 
ATOM      8  C   UNL     1      54.696 153.175  22.725  0.00  0.00    +0.000 C 
ATOM      9  C   UNL     1      54.334 151.917  23.160  0.00  0.00    +0.000 C 
ATOM     10  C   UNL     1      53.713 151.790  24.386  0.00  0.00    +0.003 C 
ATOM     11  C   UNL     1      53.508 155.265  25.620  0.00  0.00    +0.212 C 
ATOM     12  O   UNL     1      53.853 156.400  25.193  0.00  0.00    -0.285 OA
ENDROOT
BRANCH   1  13
ATOM     13  N   UNL     1      52.572 156.232  27.740  0.00  0.00    -0.296 N 
ATOM     14  C   UNL     1      51.479 156.679  28.588  0.00  0.00    +0.113 C 
ATOM     15  C   UNL     1      52.009 158.117  28.541  0.00  0.00    +0.051 C 
ATOM     16  C   UNL     1      53.287 157.443  28.081  0.00  0.00    +0.094 C 
BRANCH  14  17
ATOM     17  S   UNL     1      51.480 155.981  30.268  0.00  0.00    -0.172 S 
ATOM     18  H   UNL     1      51.148 156.997  31.108  0.00  0.00    +0.095 HD
BRANCH  17  19
ATOM     19  C   UNL     1      50.513 154.718  30.660  0.00  0.00    +0.113 C 
BRANCH  19  20
ATOM     20  N   UNL     1      50.504 154.162  31.971  0.00  0.00    -0.313 NA
ATOM     21  H   UNL     1      49.839 153.390  32.008  0.00  0.00    +0.120 HD
ATOM     22  H   UNL     1      50.230 154.879  32.643  0.00  0.00    +0.120 HD
ENDBRANCH  19  20
ENDBRANCH  17  19
ENDBRANCH  14  17
ENDBRANCH   1  13
BRANCH   2  23
ATOM     23  O   UNL     1      51.863 153.754  28.586  0.00  0.00    -0.502 OA
ATOM     24  H   UNL     1      51.691 154.509  29.113  0.00  0.00    +0.292 HD
ENDBRANCH   2  23
TORSDOF 5
