REMARK  Name = =
REMARK  5 active torsions:
REMARK  status: ('A' for Active; 'I' for Inactive)
REMARK    1  A    between atoms: C_1  and  N_13
REMARK    2  A    between atoms: C_2  and  O_22
REMARK    3  A    between atoms: C_14  and  S_17
REMARK    4  A    between atoms: C_18  and  N_19
REMARK    5  A    between atoms: C_18  and  C_20
REMARK                            x       y       z     vdW  Elec       q    Type
REMARK                         _______ _______ _______ _____ _____    ______ ____
ROOT
ATOM      1  C   UNL     1      52.910 155.398  27.765  0.00  0.00    +0.125 C 
ATOM      2  C   UNL     1      52.427 154.429  28.537  0.00  0.00    +0.190 C 
ATOM      3  C   UNL     1      52.454 153.063  28.026  0.00  0.00    +0.230 C 
ATOM      4  O   UNL     1      51.991 152.144  28.768  0.00  0.00    -0.283 OA
ATOM      5  C   UNL     1      52.986 152.728  26.712  0.00  0.00    +0.045 C 
ATOM      6  C   UNL     1      53.489 153.730  25.906  0.00  0.00    +0.043 C 
ATOM      7  C   UNL     1      54.003 153.440  24.648  0.00  0.00    +0.003 C 
ATOM      8  C   UNL     1      54.030 152.147  24.161  0.00  0.00    +0.000 C 
ATOM      9  C   UNL     1      53.528 151.143  24.965  0.00  0.00    +0.000 C 
ATOM     10  C   UNL     1      53.015 151.442  26.223  0.00  0.00    +0.003 C 
ATOM     11  C   UNL     1      53.456 155.090  26.430  0.00  0.00    +0.212 C 
ATOM     12  O   UNL     1      53.911 156.000  25.701  0.00  0.00    -0.285 OA
ENDROOT
BRANCH   1  13
ATOM     13  N   UNL     1      52.898 156.729  28.230  0.00  0.00    -0.296 N 
ATOM     14  C   UNL     1      51.894 157.769  28.303  0.00  0.00    +0.116 C 
ATOM     15  C   UNL     1      52.990 158.809  28.223  0.00  0.00    +0.052 C 
ATOM     16  C   UNL     1      53.830 157.683  28.840  0.00  0.00    +0.094 C 
BRANCH  14  17
ATOM     17  S   UNL     1      51.053 157.803  29.905  0.00  0.00    -0.148 S 
ATOM     18  C   UNL     1      49.686 156.934  30.197  0.00  0.00    +0.100 C 
ATOM     19  H   UNL     1      50.732 159.104  30.138  0.00  0.00    +0.100 HD
BRANCH  18  20
ATOM     20  N   UNL     1      49.047 156.979  31.461  0.00  0.00    -0.350 N 
ATOM     21  H   UNL     1      49.420 157.536  32.182  0.00  0.00    +0.143 HD
ATOM     22  H   UNL     1      48.230 156.453  31.619  0.00  0.00    +0.143 HD
ENDBRANCH  18  20
BRANCH  18  23
ATOM     23  C   UNL     1      49.113 156.103  29.153  0.00  0.00    +0.254 C 
ATOM     24  O   UNL     1      49.865 155.552  28.306  0.00  0.00    -0.281 OA
ENDBRANCH  18  23
ENDBRANCH  14  17
ENDBRANCH   1  13
BRANCH   2  25
ATOM     25  O   UNL     1      51.907 154.714  29.808  0.00  0.00    -0.502 OA
ATOM     26  H   UNL     1      51.896 155.596  30.123  0.00  0.00    +0.292 HD
ENDBRANCH   2  25
TORSDOF 5
