REMARK  Name = =
REMARK  11 active torsions:
REMARK  status: ('A' for Active; 'I' for Inactive)
REMARK    1  A    between atoms: S_1  and  C_4
REMARK    2  A    between atoms: C_2  and  N_20
REMARK    3  A    between atoms: C_2  and  C_21
REMARK    4  A    between atoms: N_3  and  C_7
REMARK    5  A    between atoms: C_8  and  O_19
REMARK    6  A    between atoms: C_21  and  S_23
REMARK    7  A    between atoms: S_23  and  C_24
REMARK    8  A    between atoms: S_23  and  S_27
REMARK    9  A    between atoms: C_24  and  N_26
REMARK   10  A    between atoms: S_27  and  C_28
REMARK   11  A    between atoms: C_28  and  N_30
REMARK                            x       y       z     vdW  Elec       q    Type
REMARK                         _______ _______ _______ _____ _____    ______ ____
ROOT
ATOM      1  S   UNL     1      50.494 157.327  29.059  0.00  0.00    -0.148 S 
ATOM      2  C   UNL     1      49.903 158.200  30.314  0.00  0.00    +0.102 C 
ATOM      3  H   UNL     1      50.489 158.143  27.971  0.00  0.00    +0.100 HD
ENDROOT
BRANCH   1   5
ATOM      4  N   UNL     1      52.635 155.973  27.971  0.00  0.00    -0.296 N 
ATOM      5  C   UNL     1      52.166 156.612  29.180  0.00  0.00    +0.116 C 
ATOM      6  C   UNL     1      53.203 157.710  28.923  0.00  0.00    +0.052 C 
ATOM      7  C   UNL     1      53.019 157.275  27.484  0.00  0.00    +0.094 C 
BRANCH   4   8
ATOM      8  C   UNL     1      52.701 154.654  27.466  0.00  0.00    +0.125 C 
ATOM      9  C   UNL     1      52.154 153.658  28.129  0.00  0.00    +0.190 C 
ATOM     10  C   UNL     1      52.204 152.291  27.636  0.00  0.00    +0.230 C 
ATOM     11  O   UNL     1      51.666 151.381  28.308  0.00  0.00    -0.283 OA
ATOM     12  C   UNL     1      52.860 151.936  26.381  0.00  0.00    +0.045 C 
ATOM     13  C   UNL     1      53.440 152.975  25.674  0.00  0.00    +0.043 C 
ATOM     14  C   UNL     1      54.078 152.693  24.472  0.00  0.00    +0.003 C 
ATOM     15  C   UNL     1      54.150 151.412  23.967  0.00  0.00    +0.000 C 
ATOM     16  C   UNL     1      53.561 150.398  24.698  0.00  0.00    +0.000 C 
ATOM     17  C   UNL     1      52.919 150.649  25.896  0.00  0.00    +0.003 C 
ATOM     18  C   UNL     1      53.367 154.327  26.201  0.00  0.00    +0.212 C 
ATOM     19  O   UNL     1      53.895 155.254  25.552  0.00  0.00    -0.285 OA
BRANCH   9  20
ATOM     20  O   UNL     1      51.503 153.899  29.339  0.00  0.00    -0.502 OA
ATOM     21  H   UNL     1      51.456 154.770  29.680  0.00  0.00    +0.292 HD
ENDBRANCH   9  20
ENDBRANCH   4   8
ENDBRANCH   1   5
BRANCH   2  22
ATOM     22  N   UNL     1      50.726 158.363  31.450  0.00  0.00    -0.350 N 
ATOM     23  H   UNL     1      51.623 157.958  31.470  0.00  0.00    +0.143 HD
ATOM     24  H   UNL     1      50.402 158.881  32.222  0.00  0.00    +0.143 HD
ENDBRANCH   2  22
BRANCH   2  25
ATOM     25  C   UNL     1      48.559 158.792  30.255  0.00  0.00    +0.234 C 
ATOM     26  O   UNL     1      47.656 158.061  29.778  0.00  0.00    -0.278 OA
BRANCH  25  27
ATOM     27  S   UNL     1      48.357 160.389  30.831  0.00  0.00    -0.086 S 
ATOM     28  H   UNL     1      47.698 160.391  32.021  0.00  0.00    +0.107 HD
BRANCH  27  29
ATOM     29  C   UNL     1      47.600 161.391  29.694  0.00  0.00    +0.100 C 
ATOM     30  S   UNL     1      46.388 162.401  30.192  0.00  0.00    -0.029 S 
BRANCH  29  31
ATOM     31  N   UNL     1      47.929 161.432  28.331  0.00  0.00    -0.347 N 
ATOM     32  H   UNL     1      47.446 162.040  27.726  0.00  0.00    +0.143 HD
ATOM     33  H   UNL     1      48.643 160.852  27.979  0.00  0.00    +0.143 HD
ENDBRANCH  29  31
ENDBRANCH  27  29
BRANCH  27  34
ATOM     34  S   UNL     1      49.959 160.972  30.679  0.00  0.00    -0.043 S 
BRANCH  34  35
ATOM     35  C   UNL     1      50.724 161.521  32.036  0.00  0.00    +0.114 C 
ATOM     36  S   UNL     1      49.951 161.797  33.475  0.00  0.00    -0.028 S 
BRANCH  35  37
ATOM     37  N   UNL     1      52.141 161.809  32.086  0.00  0.00    -0.346 N 
ATOM     38  H   UNL     1      52.698 161.680  31.285  0.00  0.00    +0.143 HD
ATOM     39  H   UNL     1      52.548 162.134  32.921  0.00  0.00    +0.143 HD
ENDBRANCH  35  37
ENDBRANCH  34  35
ENDBRANCH  27  34
ENDBRANCH  25  27
ENDBRANCH   2  25
TORSDOF 11
