REMARK  Name = =
REMARK  14 active torsions:
REMARK  status: ('A' for Active; 'I' for Inactive)
REMARK    1  A    between atoms: S_1  and  C_2
REMARK    2  A    between atoms: S_1  and  C_4
REMARK    3  A    between atoms: C_2  and  N_20
REMARK    4  A    between atoms: C_2  and  C_21
REMARK    5  A    between atoms: N_3  and  C_7
REMARK    6  A    between atoms: C_8  and  O_19
REMARK    7  A    between atoms: C_21  and  S_23
REMARK    8  A    between atoms: S_23  and  C_24
REMARK    9  A    between atoms: S_23  and  S_29
REMARK   10  A    between atoms: C_24  and  N_26
REMARK   11  A    between atoms: N_26  and  S_27
REMARK   12  A    between atoms: S_27  and  S_28
REMARK   13  A    between atoms: S_29  and  C_30
REMARK   14  A    between atoms: C_30  and  N_32
REMARK                            x       y       z     vdW  Elec       q    Type
REMARK                         _______ _______ _______ _____ _____    ______ ____
ROOT
ATOM      1  C   UNL     1      52.152 158.283  29.332  0.00  0.00    +0.158 C 
ENDROOT
BRANCH   1   2
ATOM      2  N   UNL     1      53.347 159.045  29.391  0.00  0.00    -0.308 NA
ATOM      3  H   UNL     1      54.070 158.587  28.836  0.00  0.00    +0.120 HD
ATOM      4  H   UNL     1      53.657 159.117  30.360  0.00  0.00    +0.120 HD
ENDBRANCH   1   2
BRANCH   1   5
ATOM      5  S   UNL     1      52.037 156.894  28.483  0.00  0.00    -0.166 S 
ATOM      6  H   UNL     1      51.032 157.076  27.585  0.00  0.00    +0.096 HD
BRANCH   5   8
ATOM      7  N   UNL     1      53.089 155.247  26.545  0.00  0.00    -0.296 N 
ATOM      8  C   UNL     1      53.450 156.227  27.543  0.00  0.00    +0.113 C 
ATOM      9  C   UNL     1      53.936 157.115  26.427  0.00  0.00    +0.051 C 
ATOM     10  C   UNL     1      52.934 156.322  25.594  0.00  0.00    +0.094 C 
BRANCH   7  11
ATOM     11  C   UNL     1      52.942 153.839  26.490  0.00  0.00    +0.125 C 
ATOM     12  C   UNL     1      52.187 153.198  27.367  0.00  0.00    +0.190 C 
ATOM     13  C   UNL     1      52.041 151.730  27.300  0.00  0.00    +0.230 C 
ATOM     14  O   UNL     1      51.314 151.160  28.151  0.00  0.00    -0.283 OA
ATOM     15  C   UNL     1      52.717 150.948  26.276  0.00  0.00    +0.045 C 
ATOM     16  C   UNL     1      53.503 151.621  25.366  0.00  0.00    +0.043 C 
ATOM     17  C   UNL     1      54.164 150.931  24.378  0.00  0.00    +0.003 C 
ATOM     18  C   UNL     1      54.058 149.558  24.275  0.00  0.00    +0.000 C 
ATOM     19  C   UNL     1      53.274 148.890  25.185  0.00  0.00    +0.000 C 
ATOM     20  C   UNL     1      52.610 149.586  26.177  0.00  0.00    +0.003 C 
ATOM     21  C   UNL     1      53.641 153.070  25.439  0.00  0.00    +0.212 C 
ATOM     22  O   UNL     1      54.364 153.666  24.596  0.00  0.00    -0.285 OA
BRANCH  12  23
ATOM     23  O   UNL     1      51.543 153.947  28.341  0.00  0.00    -0.502 OA
ATOM     24  H   UNL     1      51.651 154.878  28.364  0.00  0.00    +0.292 HD
ENDBRANCH  12  23
ENDBRANCH   7  11
ENDBRANCH   5   8
ENDBRANCH   1   5
BRANCH   1  25
ATOM     25  C   UNL     1      51.003 158.790  30.072  0.00  0.00    +0.217 C 
ATOM     26  O   UNL     1      50.286 157.941  30.666  0.00  0.00    -0.283 OA
BRANCH  25  27
ATOM     27  S   UNL     1      50.623 160.483  30.144  0.00  0.00    -0.089 S 
ATOM     28  H   UNL     1      51.115 161.414  29.284  0.00  0.00    +0.107 HD
BRANCH  27  29
ATOM     29  C   UNL     1      51.253 160.845  31.787  0.00  0.00    +0.113 C 
ATOM     30  S   UNL     1      50.391 160.386  33.065  0.00  0.00    -0.028 S 
BRANCH  29  31
ATOM     31  N   UNL     1      52.503 161.518  31.881  0.00  0.00    -0.269 N 
ATOM     32  H   UNL     1      52.914 161.613  32.771  0.00  0.00    +0.162 HD
BRANCH  31  33
ATOM     33  S   UNL     1      53.348 162.184  30.512  0.00  0.00    +0.007 S 
BRANCH  33  34
ATOM     34  S   UNL     1      55.451 162.238  30.813  0.00  0.00    -0.091 S 
ATOM     35  H   UNL     1      56.053 162.766  29.714  0.00  0.00    +0.115 HD
ENDBRANCH  33  34
ENDBRANCH  31  33
ENDBRANCH  29  31
ENDBRANCH  27  29
BRANCH  27  36
ATOM     36  S   UNL     1      49.019 160.445  29.922  0.00  0.00    -0.044 S 
BRANCH  36  37
ATOM     37  C   UNL     1      47.808 161.012  30.871  0.00  0.00    +0.114 C 
ATOM     38  S   UNL     1      46.206 160.714  30.535  0.00  0.00    -0.028 S 
BRANCH  37  39
ATOM     39  N   UNL     1      47.976 161.807  32.066  0.00  0.00    -0.346 N 
ATOM     40  H   UNL     1      48.879 162.052  32.372  0.00  0.00    +0.143 HD
ATOM     41  H   UNL     1      47.187 162.104  32.575  0.00  0.00    +0.143 HD
ENDBRANCH  37  39
ENDBRANCH  36  37
ENDBRANCH  27  36
ENDBRANCH  25  27
ENDBRANCH   1  25
TORSDOF 14
