REMARK  Name = =
REMARK  2 active torsions:
REMARK  status: ('A' for Active; 'I' for Inactive)
REMARK    1  A    between atoms: N_1  and  C_12
REMARK    2  A    between atoms: N_7  and  C_14
REMARK                            x       y       z     vdW  Elec       q    Type
REMARK                         _______ _______ _______ _____ _____    ______ ____
ROOT
ATOM      1  N   UNL     1     -16.784 -42.919  26.088  0.00  0.00    -0.233 NA
ATOM      2  C   UNL     1     -18.107 -42.566  26.561  0.00  0.00    +0.108 C 
ATOM      3  C   UNL     1     -18.047 -41.197  27.220  0.00  0.00    +0.160 C 
ATOM      4  O   UNL     1     -16.808 -40.956  27.802  0.00  0.00    -0.349 OA
ATOM      5  C   UNL     1     -16.378 -42.202  28.355  0.00  0.00    +0.175 C 
ATOM      6  C   UNL     1     -15.963 -43.112  27.259  0.00  0.00    +0.151 C 
ENDROOT
BRANCH   6   7
ATOM      7  N   UNL     1     -14.615 -43.211  26.891  0.00  0.00    -0.255 NA
ATOM      8  C   UNL     1     -13.883 -44.167  27.706  0.00  0.00    +0.106 C 
ATOM      9  C   UNL     1     -12.404 -44.137  27.405  0.00  0.00    +0.160 C 
ATOM     10  O   UNL     1     -11.900 -42.962  27.951  0.00  0.00    -0.351 OA
ATOM     11  C   UNL     1     -12.887 -41.978  28.108  0.00  0.00    +0.160 C 
ATOM     12  C   UNL     1     -13.838 -42.006  26.906  0.00  0.00    +0.106 C 
ENDBRANCH   6   7
BRANCH   1  14
ATOM     13  O   UNL     1     -17.136 -41.854  24.031  0.00  0.00    -0.314 OA
ATOM     14  C   UNL     1     -16.338 -41.871  25.235  0.00  0.00    +0.199 C 
ATOM     15  C   UNL     1     -15.186 -42.149  24.315  0.00  0.00    +0.111 C 
ATOM     16  C   UNL     1     -16.017 -41.260  23.418  0.00  0.00    +0.260 C 
ATOM     17  O   UNL     1     -15.814 -40.392  22.535  0.00  0.00    -0.191 OA
ENDBRANCH   1  14
TORSDOF 2
REMARK  Name = =
REMARK  2 active torsions:
REMARK  status: ('A' for Active; 'I' for Inactive)
REMARK    1  A    between atoms: N_1  and  C_12
REMARK    2  A    between atoms: N_7  and  C_14
REMARK                            x       y       z     vdW  Elec       q    Type
REMARK                         _______ _______ _______ _____ _____    ______ ____
ROOT
ATOM      1  I   UNL     1     -11.575 -45.903  28.213  0.00  0.00    -0.107 I 
ATOM      2  H   UNL     1     -10.014 -45.903  28.213  0.00  0.00    +0.107 HD
ENDROOT
TORSDOF 0
REMARK  Name = =
REMARK  2 active torsions:
REMARK  status: ('A' for Active; 'I' for Inactive)
REMARK    1  A    between atoms: N_1  and  C_12
REMARK    2  A    between atoms: N_7  and  C_14
REMARK                            x       y       z     vdW  Elec       q    Type
REMARK                         _______ _______ _______ _____ _____    ______ ____
ROOT
ATOM      1  C   UNL     1     -10.276 -45.371  29.761  0.00  0.00    +0.000 C 
ATOM      2  C   UNL     1     -10.429 -44.211  30.486  0.00  0.00    +0.000 C 
ATOM      3  C   UNL     1      -9.566 -43.862  31.475  0.00  0.00    +0.000 C 
ATOM      4  C   UNL     1      -8.510 -44.656  31.793  0.00  0.00    +0.000 C 
ATOM      5  C   UNL     1      -8.312 -45.846  31.083  0.00  0.00    +0.000 C 
ATOM      6  C   UNL     1      -9.213 -46.166  30.082  0.00  0.00    +0.000 C 
ENDROOT
TORSDOF 0
