MODEL 1
REMARK VINA RESULT:    -7.658      0.000      0.000
REMARK INTER + INTRA:          -9.077
REMARK INTER:                  -8.554
REMARK INTRA:                  -0.523
REMARK UNBOUND:                -0.523
REMARK  Name = =
REMARK  2 active torsions:
REMARK  status: ('A' for Active; 'I' for Inactive)
REMARK    1  A    between atoms: C_8  and  S_19
REMARK    2  A    between atoms: C_13  and  C_24
REMARK                            x       y       z     vdW  Elec       q    Type
REMARK                         _______ _______ _______ _____ _____    ______ ____
ROOT
ATOM      1  N   UNL     1      60.412 163.370  39.562  0.00  0.00    -0.238 N 
ATOM      2  C   UNL     1      60.964 162.168  40.190  0.00  0.00    +0.055 C 
ATOM      3  C   UNL     1      60.623 160.880  39.864  0.00  0.00    +0.001 C 
ATOM      4  C   UNL     1      61.284 159.901  40.615  0.00  0.00    -0.002 C 
ATOM      5  C   UNL     1      62.187 160.200  41.585  0.00  0.00    -0.000 C 
ATOM      6  C   UNL     1      62.500 161.530  41.874  0.00  0.00    +0.001 C 
ATOM      7  C   UNL     1      61.874 162.521  41.160  0.00  0.00    +0.015 C 
ATOM      8  C   UNL     1      59.708 160.313  38.893  0.00  0.00    +0.063 C 
ATOM      9  C   UNL     1      59.091 161.068  37.818  0.00  0.00    +0.042 C 
ATOM     10  C   UNL     1      59.586 162.401  37.430  0.00  0.00    -0.007 C 
ATOM     11  C   UNL     1      60.173 163.428  38.152  0.00  0.00    +0.054 C 
ATOM     12  C   UNL     1      60.578 164.618  37.637  0.00  0.00    +0.013 C 
ATOM     13  C   UNL     1      60.388 164.824  36.301  0.00  0.00    +0.006 C 
ATOM     14  C   UNL     1      59.802 163.846  35.503  0.00  0.00    -0.002 C 
ATOM     15  C   UNL     1      59.406 162.648  36.055  0.00  0.00    -0.003 C 
ATOM     16  C   UNL     1      60.127 164.459  40.378  0.00  0.00    +0.234 C 
ATOM     17  O   UNL     1      60.414 164.482  41.631  0.00  0.00    -0.274 OA
ATOM     18  C   UNL     1      59.454 165.685  39.882  0.00  0.00    +0.096 C 
ENDROOT
BRANCH   8  19
ATOM     19  S   UNL     1      58.473 159.469  39.773  0.00  0.00    -0.184 S 
ATOM     20  C   UNL     1      58.930 158.030  40.762  0.00  0.00    +0.014 C 
ATOM     21  C   UNL     1      58.487 158.300  41.957  0.00  0.00    +0.006 C 
ATOM     22  C   UNL     1      57.819 159.527  42.184  0.00  0.00    +0.006 C 
ATOM     23  C   UNL     1      57.678 160.343  41.176  0.00  0.00    +0.014 C 
ATOM     24  H   UNL     1      57.735 159.241  38.654  0.00  0.00    +0.093 HD
ENDBRANCH   8  19
BRANCH  13  25
ATOM     25  C   UNL     1      60.805 166.108  35.718  0.00  0.00    +0.137 C 
ATOM     26  C   UNL     1      60.851 166.116  34.224  0.00  0.00    +0.034 C 
ATOM     27  C   UNL     1      59.912 167.141  33.629  0.00  0.00    +0.005 C 
ATOM     28  C   UNL     1      60.091 168.494  34.299  0.00  0.00    +0.032 C 
ATOM     29  C   UNL     1      60.446 168.322  35.748  0.00  0.00    +0.143 C 
ATOM     30  O   UNL     1      59.908 167.102  36.170  0.00  0.00    -0.352 OA
ENDBRANCH  13  25
TORSDOF 2
ENDMDL
