REMARK  Name = =
REMARK  12 active torsions:
REMARK  status: ('A' for Active; 'I' for Inactive)
REMARK    1  A    between atoms: N_1  and  N_2
REMARK    2  A    between atoms: N_1  and  C_5
REMARK    3  A    between atoms: N_1  and  N_18
REMARK    4  A    between atoms: C_5  and  P_7
REMARK    5  A    between atoms: P_7  and  O_9
REMARK    6  A    between atoms: P_7  and  C_11
REMARK    7  A    between atoms: C_11  and  O_14
REMARK    8  A    between atoms: N_12  and  O_13
REMARK    9  A    between atoms: O_14  and  C_15
REMARK   10  A    between atoms: C_15  and  O_17
REMARK   11  A    between atoms: N_18  and  N_19
REMARK   12  A    between atoms: N_18  and  O_36
REMARK                            x       y       z     vdW  Elec       q    Type
REMARK                         _______ _______ _______ _____ _____    ______ ____
ROOT
ATOM      1  N   UNL     1      50.930 156.781  29.618  0.00  0.00    -0.115 N 
ENDROOT
BRANCH   1   2
ATOM      2  N   UNL     1      49.595 156.718  29.980  0.00  0.00    -0.204 N 
ATOM      3  C   UNL     1      48.527 157.506  29.555  0.00  0.00    +0.318 C 
ATOM      4  O   UNL     1      48.640 158.424  28.747  0.00  0.00    -0.264 OA
ATOM      5  H   UNL     1      49.368 156.016  30.631  0.00  0.00    +0.175 HD
ENDBRANCH   1   2
BRANCH   1   6
ATOM      6  C   UNL     1      51.544 158.078  29.503  0.00  0.00    +0.110 C 
ATOM      7  C   UNL     1      52.714 158.053  28.875  0.00  0.00    +0.022 C 
BRANCH   6   8
ATOM      8  P   UNL     1      50.904 159.539  30.141  0.00  0.00    +0.104 P 
ATOM      9  H   UNL     1      50.077 158.882  31.029  0.00  0.00    +0.096 HD
BRANCH   8  10
ATOM     10  O   UNL     1      50.021 160.730  29.311  0.00  0.00    -0.367 OA
ATOM     11  H   UNL     1      50.605 161.190  28.688  0.00  0.00    +0.215 HD
ENDBRANCH   8  10
BRANCH   8  12
ATOM     12  C   UNL     1      52.258 160.674  30.528  0.00  0.00    +0.282 C 
ATOM     13  N   UNL     1      53.420 160.352  30.293  0.00  0.00    -0.046 NA
BRANCH  13  14
ATOM     14  O   UNL     1      54.677 160.552  30.278  0.00  0.00    -0.406 OA
ATOM     15  H   UNL     1      55.252 159.892  29.943  0.00  0.00    +0.328 HD
ENDBRANCH  13  14
BRANCH  12  16
ATOM     16  O   UNL     1      51.940 161.896  31.094  0.00  0.00    -0.371 OA
BRANCH  16  17
ATOM     17  C   UNL     1      52.834 162.882  31.405  0.00  0.00    +0.515 C 
ATOM     18  O   UNL     1      54.051 162.701  31.214  0.00  0.00    -0.203 OA
BRANCH  17  19
ATOM     19  O   UNL     1      52.439 164.099  31.935  0.00  0.00    -0.449 OA
ATOM     20  H   UNL     1      53.080 164.752  32.136  0.00  0.00    +0.299 HD
ENDBRANCH  17  19
ENDBRANCH  16  17
ENDBRANCH  12  16
ENDBRANCH   8  12
ENDBRANCH   6   8
ENDBRANCH   1   6
BRANCH   1  21
ATOM     21  N   UNL     1      51.597 155.574  29.457  0.00  0.00    -0.058 N 
BRANCH  21  22
ATOM     22  N   UNL     1      52.125 155.013  28.330  0.00  0.00    -0.129 N 
ATOM     23  N   UNL     1      52.102 153.688  28.085  0.00  0.00    -0.146 NA
ATOM     24  C   UNL     1      52.702 153.464  26.903  0.00  0.00    +0.105 A 
ATOM     25  C   UNL     1      52.981 152.263  26.112  0.00  0.00    +0.023 C 
ATOM     26  C   UNL     1      53.643 152.402  24.895  0.00  0.00    +0.040 C 
ATOM     27  C   UNL     1      54.066 153.725  24.387  0.00  0.00    +0.196 C 
ATOM     28  O   UNL     1      54.662 153.899  23.303  0.00  0.00    -0.287 OA
ATOM     29  C   UNL     1      53.758 154.892  25.222  0.00  0.00    +0.042 C 
ATOM     30  C   UNL     1      53.108 154.651  26.397  0.00  0.00    +0.042 A 
ATOM     31  C   UNL     1      52.737 155.616  27.308  0.00  0.00    +0.106 A 
ATOM     32  C   UNL     1      53.077 156.926  26.964  0.00  0.00    +0.021 C 
ATOM     33  C   UNL     1      53.746 157.181  25.760  0.00  0.00    +0.002 C 
ATOM     34  C   UNL     1      54.101 156.194  24.869  0.00  0.00    +0.003 C 
ATOM     35  C   UNL     1      53.922 151.300  24.128  0.00  0.00    +0.003 C 
ATOM     36  C   UNL     1      53.547 150.037  24.559  0.00  0.00    +0.000 C 
ATOM     37  C   UNL     1      52.886 149.894  25.772  0.00  0.00    +0.000 C 
ATOM     38  C   UNL     1      52.618 151.015  26.522  0.00  0.00    +0.002 C 
ENDBRANCH  21  22
BRANCH  21  39
ATOM     39  O   UNL     1      51.680 154.878  30.671  0.00  0.00    -0.252 OA
ATOM     40  H   UNL     1      51.264 155.402  31.373  0.00  0.00    +0.248 HD
ENDBRANCH  21  39
ENDBRANCH   1  21
TORSDOF 12
REMARK  Name = =
REMARK  12 active torsions:
REMARK  status: ('A' for Active; 'I' for Inactive)
REMARK    1  A    between atoms: N_1  and  N_2
REMARK    2  A    between atoms: N_1  and  C_5
REMARK    3  A    between atoms: N_1  and  N_18
REMARK    4  A    between atoms: C_5  and  P_7
REMARK    5  A    between atoms: P_7  and  O_9
REMARK    6  A    between atoms: P_7  and  C_11
REMARK    7  A    between atoms: C_11  and  O_14
REMARK    8  A    between atoms: N_12  and  O_13
REMARK    9  A    between atoms: O_14  and  C_15
REMARK   10  A    between atoms: C_15  and  O_17
REMARK   11  A    between atoms: N_18  and  N_19
REMARK   12  A    between atoms: N_18  and  O_36
REMARK                            x       y       z     vdW  Elec       q    Type
REMARK                         _______ _______ _______ _____ _____    ______ ____
ROOT
ATOM      1  O   UNL     1      51.302 158.970  31.514  0.00  0.00    -0.038 OA
ATOM      2  O   UNL     1      49.841 159.023  31.351  0.00  0.00    -0.218 OA
ATOM      3  H   UNL     1      49.625 159.181  30.419  0.00  0.00    +0.256 HD
ENDROOT
TORSDOF 0
