MODEL 1
REMARK VINA RESULT:    -6.612      0.000      0.000
REMARK INTER + INTRA:         -10.337
REMARK INTER:                  -8.931
REMARK INTRA:                  -1.405
REMARK UNBOUND:                -1.405
REMARK  Name = =
REMARK  7 active torsions:
REMARK  status: ('A' for Active; 'I' for Inactive)
REMARK    1  A    between atoms: C_1  and  O_22
REMARK    2  A    between atoms: C_10  and  N_11
REMARK    3  A    between atoms: C_14  and  C_17
REMARK    4  A    between atoms: O_22  and  C_23
REMARK    5  A    between atoms: C_23  and  P_25
REMARK    6  A    between atoms: P_25  and  O_27
REMARK    7  A    between atoms: P_25  and  O_28
REMARK                            x       y       z     vdW  Elec       q    Type
REMARK                         _______ _______ _______ _____ _____    ______ ____
ROOT
ATOM      1  C   UNL     1      60.713 160.670  38.847  0.00  0.00    +0.247 C 
ATOM      2  N   UNL     1      60.824 159.916  39.962  0.00  0.00    -0.207 NA
ATOM      3  C   UNL     1      59.785 159.623  40.764  0.00  0.00    +0.121 C 
ATOM      4  C   UNL     1      58.554 160.132  40.402  0.00  0.00    +0.104 C 
ATOM      5  N   UNL     1      57.514 159.838  41.204  0.00  0.00    -0.222 NA
ATOM      6  C   UNL     1      57.613 159.091  42.317  0.00  0.00    +0.199 C 
ATOM      7  N   UNL     1      58.829 158.597  42.662  0.00  0.00    -0.221 NA
ATOM      8  C   UNL     1      59.923 158.850  41.902  0.00  0.00    +0.121 C 
ATOM      9  C   UNL     1      58.411 160.906  39.262  0.00  0.00    +0.040 C 
ATOM     10  C   UNL     1      59.499 161.194  38.454  0.00  0.00    +0.110 C 
ENDROOT
BRANCH  10  11
ATOM     11  N   UNL     1      59.390 161.990  37.275  0.00  0.00    -0.247 N 
ATOM     12  C   UNL     1      58.755 161.583  36.050  0.00  0.00    +0.125 C 
ATOM     13  C   UNL     1      58.869 162.709  35.096  0.00  0.00    +0.001 C 
ATOM     14  C   UNL     1      59.512 163.691  35.699  0.00  0.00    +0.067 C 
ATOM     15  C   UNL     1      59.865 163.309  37.055  0.00  0.00    +0.254 C 
ATOM     16  O   UNL     1      60.483 164.051  37.859  0.00  0.00    -0.270 OA
BRANCH  14  17
ATOM     17  C   UNL     1      59.816 164.988  35.053  0.00  0.00    +0.089 C 
ATOM     18  N   UNL     1      58.958 165.800  34.571  0.00  0.00    -0.227 NA
ATOM     19  C   UNL     1      59.602 166.949  34.025  0.00  0.00    +0.194 C 
ATOM     20  N   UNL     1      61.005 166.714  34.251  0.00  0.00    -0.244 NA
ATOM     21  C   UNL     1      61.117 165.582  34.844  0.00  0.00    +0.173 C 
ENDBRANCH  14  17
ENDBRANCH  10  11
BRANCH   1  22
ATOM     22  O   UNL     1      61.815 160.954  38.038  0.00  0.00    -0.397 OA
BRANCH  22  23
ATOM     23  C   UNL     1      63.030 161.182  38.646  0.00  0.00    +0.427 C 
ATOM     24  O   UNL     1      63.883 160.257  38.810  0.00  0.00    -0.236 OA
BRANCH  23  25
ATOM     25  P   UNL     1      63.380 162.842  39.205  0.00  0.00    +0.435 P 
ATOM     26  O   UNL     1      64.729 162.859  39.890  0.00  0.00    -0.247 OA
BRANCH  25  27
ATOM     27  O   UNL     1      62.208 163.334  40.305  0.00  0.00    -0.316 OA
ATOM     28  H   UNL     1      61.610 162.595  40.493  0.00  0.00    +0.220 HD
ENDBRANCH  25  27
BRANCH  25  29
ATOM     29  O   UNL     1      63.402 163.832  37.821  0.00  0.00    -0.316 OA
ATOM     30  H   UNL     1      63.822 163.355  37.089  0.00  0.00    +0.220 HD
ENDBRANCH  25  29
ENDBRANCH  23  25
ENDBRANCH  22  23
ENDBRANCH   1  22
TORSDOF 7
ENDMDL
