REMARK  Name = =
REMARK  7 active torsions:
REMARK  status: ('A' for Active; 'I' for Inactive)
REMARK    1  A    between atoms: C_1  and  S_16
REMARK    2  A    between atoms: S_16  and  O_17
REMARK    3  A    between atoms: O_17  and  C_18
REMARK    4  A    between atoms: C_18  and  O_20
REMARK    5  A    between atoms: O_20  and  N_21
REMARK    6  A    between atoms: N_21  and  S_22
REMARK    7  A    between atoms: S_22  and  N_25
REMARK                            x       y       z     vdW  Elec       q    Type
REMARK                         _______ _______ _______ _____ _____    ______ ____
ROOT
ATOM      1  C   UNL     1      52.950 157.222  27.842  0.00  0.00    +0.254 A 
ATOM      2  N   UNL     1      54.075 157.537  27.194  0.00  0.00    -0.166 N 
ATOM      3  N   UNL     1      54.782 158.288  28.042  0.00  0.00    -0.037 NA
ATOM      4  N   UNL     1      54.161 158.458  29.180  0.00  0.00    -0.022 NA
ATOM      5  N   UNL     1      53.006 157.785  29.054  0.00  0.00    -0.098 NA
ATOM      6  C   UNL     1      54.454 157.157  25.872  0.00  0.00    +0.168 C 
ATOM      7  C   UNL     1      54.109 155.907  25.394  0.00  0.00    +0.039 C 
ATOM      8  C   UNL     1      54.451 155.484  24.115  0.00  0.00    +0.024 C 
ATOM      9  C   UNL     1      55.159 156.365  23.321  0.00  0.00    +0.022 C 
ATOM     10  C   UNL     1      55.497 157.610  23.807  0.00  0.00    +0.101 C 
ATOM     11  N   UNL     1      55.141 157.965  25.050  0.00  0.00    -0.225 NA
ATOM     12  C   UNL     1      54.092 154.230  23.667  0.00  0.00    +0.099 C 
ATOM     13  N   UNL     1      53.404 153.376  24.443  0.00  0.00    -0.242 NA
ATOM     14  C   UNL     1      53.070 153.779  25.678  0.00  0.00    +0.099 C 
ATOM     15  C   UNL     1      53.400 155.019  26.184  0.00  0.00    +0.024 C 
ENDROOT
BRANCH   1  16
ATOM     16  S   UNL     1      51.628 156.230  27.194  0.00  0.00    +0.143 S 
BRANCH  16  17
ATOM     17  O   UNL     1      50.504 155.758  28.447  0.00  0.00    -0.350 OA
BRANCH  17  18
ATOM     18  C   UNL     1      50.609 154.516  29.058  0.00  0.00    +0.544 C 
ATOM     19  O   UNL     1      51.055 154.474  30.233  0.00  0.00    -0.200 OA
BRANCH  18  20
ATOM     20  O   UNL     1      50.254 153.335  28.450  0.00  0.00    -0.314 OA
BRANCH  20  21
ATOM     21  N   UNL     1      50.918 152.833  27.334  0.00  0.00    -0.004 NA
ATOM     22  H   UNL     1      50.251 152.383  26.707  0.00  0.00    +0.197 HD
BRANCH  21  23
ATOM     23  S   UNL     1      52.079 151.677  27.885  0.00  0.00    +0.123 S 
ATOM     24  O   UNL     1      52.682 151.053  26.643  0.00  0.00    -0.139 OA
ATOM     25  O   UNL     1      51.438 150.584  28.686  0.00  0.00    -0.139 OA
BRANCH  23  26
ATOM     26  N   UNL     1      53.301 152.428  28.813  0.00  0.00    -0.191 NA
ATOM     27  H   UNL     1      52.887 152.845  29.647  0.00  0.00    +0.145 HD
ATOM     28  H   UNL     1      53.752 153.155  28.257  0.00  0.00    +0.145 HD
ENDBRANCH  23  26
ENDBRANCH  21  23
ENDBRANCH  20  21
ENDBRANCH  18  20
ENDBRANCH  17  18
ENDBRANCH  16  17
ENDBRANCH   1  16
TORSDOF 7
