REMARK  Name = =
REMARK  9 active torsions:
REMARK  status: ('A' for Active; 'I' for Inactive)
REMARK    1  A    between atoms: O_1  and  C_2
REMARK    2  A    between atoms: O_1  and  S_15
REMARK    3  A    between atoms: C_2  and  O_4
REMARK    4  A    between atoms: O_4  and  N_5
REMARK    5  A    between atoms: N_5  and  S_6
REMARK    6  A    between atoms: S_6  and  N_9
REMARK    7  A    between atoms: N_9  and  N_10
REMARK    8  A    between atoms: S_15  and  C_16
REMARK    9  A    between atoms: N_17  and  C_21
REMARK                            x       y       z     vdW  Elec       q    Type
REMARK                         _______ _______ _______ _____ _____    ______ ____
ROOT
ATOM      1  O   UNL     1      54.402 155.944  26.084  0.00  0.00    -0.350 OA
ENDROOT
BRANCH   1   2
ATOM      2  C   UNL     1      53.014 155.832  26.156  0.00  0.00    +0.544 C 
ATOM      3  O   UNL     1      52.413 155.656  25.063  0.00  0.00    -0.200 OA
BRANCH   2   4
ATOM      4  O   UNL     1      52.311 155.906  27.346  0.00  0.00    -0.314 OA
BRANCH   4   5
ATOM      5  N   UNL     1      51.570 157.020  27.612  0.00  0.00    -0.003 NA
ATOM      6  H   UNL     1      50.583 156.763  27.606  0.00  0.00    +0.197 HD
BRANCH   5   7
ATOM      7  S   UNL     1      51.944 157.725  29.136  0.00  0.00    +0.139 S 
ATOM      8  O   UNL     1      51.578 156.781  30.216  0.00  0.00    -0.137 OA
ATOM      9  O   UNL     1      53.448 157.930  29.169  0.00  0.00    -0.137 OA
BRANCH   7  10
ATOM     10  N   UNL     1      51.211 159.259  29.343  0.00  0.00    -0.108 NA
ATOM     11  H   UNL     1      50.602 159.429  28.542  0.00  0.00    +0.169 HD
BRANCH  10  12
ATOM     12  N   UNL     1      50.468 159.395  30.473  0.00  0.00    -0.202 NA
ATOM     13  C   UNL     1      49.126 159.825  30.320  0.00  0.00    +0.090 C 
ATOM     14  C   UNL     1      48.793 160.606  31.596  0.00  0.00    +0.020 C 
ATOM     15  C   UNL     1      50.146 161.152  31.970  0.00  0.00    +0.020 C 
ATOM     16  C   UNL     1      51.075 160.038  31.577  0.00  0.00    +0.090 C 
ENDBRANCH  10  12
ENDBRANCH   7  10
ENDBRANCH   5   7
ENDBRANCH   4   5
ENDBRANCH   2   4
ENDBRANCH   1   2
BRANCH   1  17
ATOM     17  S   UNL     1      55.299 155.493  24.659  0.00  0.00    +0.143 S 
BRANCH  17  18
ATOM     18  C   UNL     1      54.602 153.953  24.054  0.00  0.00    +0.254 A 
ATOM     19  N   UNL     1      54.352 152.912  24.875  0.00  0.00    -0.166 N 
ATOM     20  N   UNL     1      53.853 151.961  24.124  0.00  0.00    -0.037 NA
ATOM     21  N   UNL     1      53.790 152.394  22.856  0.00  0.00    -0.022 NA
ATOM     22  N   UNL     1      54.254 153.639  22.793  0.00  0.00    -0.098 NA
BRANCH  19  23
ATOM     23  C   UNL     1      54.577 152.840  26.277  0.00  0.00    +0.168 C 
ATOM     24  C   UNL     1      55.799 152.472  26.800  0.00  0.00    +0.039 C 
ATOM     25  C   UNL     1      56.049 152.392  28.157  0.00  0.00    +0.024 C 
ATOM     26  C   UNL     1      55.011 152.700  29.024  0.00  0.00    +0.022 C 
ATOM     27  C   UNL     1      53.797 153.064  28.489  0.00  0.00    +0.101 C 
ATOM     28  N   UNL     1      53.591 153.132  27.165  0.00  0.00    -0.225 NA
ATOM     29  C   UNL     1      57.280 152.023  28.665  0.00  0.00    +0.099 C 
ATOM     30  N   UNL     1      58.265 151.731  27.810  0.00  0.00    -0.242 NA
ATOM     31  C   UNL     1      58.083 151.791  26.483  0.00  0.00    +0.099 C 
ATOM     32  C   UNL     1      56.858 152.158  25.966  0.00  0.00    +0.024 C 
ENDBRANCH  19  23
ENDBRANCH  17  18
ENDBRANCH   1  17
TORSDOF 9
