REMARK  Name = =
REMARK  10 active torsions:
REMARK  status: ('A' for Active; 'I' for Inactive)
REMARK    1  A    between atoms: O_1  and  C_2
REMARK    2  A    between atoms: O_1  and  N_21
REMARK    3  A    between atoms: C_2  and  O_4
REMARK    4  A    between atoms: O_4  and  S_5
REMARK    5  A    between atoms: S_5  and  C_6
REMARK    6  A    between atoms: N_7  and  C_11
REMARK    7  A    between atoms: N_21  and  C_22
REMARK    8  A    between atoms: N_21  and  S_28
REMARK    9  A    between atoms: S_28  and  N_31
REMARK   10  A    between atoms: N_31  and  N_32
REMARK                            x       y       z     vdW  Elec       q    Type
REMARK                         _______ _______ _______ _____ _____    ______ ____
ROOT
ATOM      1  O   UNL     1      53.295 155.890  28.185  0.00  0.00    -0.309 OA
ENDROOT
BRANCH   1   2
ATOM      2  C   UNL     1      52.671 154.750  27.701  0.00  0.00    +0.544 C 
ATOM      3  O   UNL     1      52.786 153.696  28.362  0.00  0.00    -0.200 OA
BRANCH   2   4
ATOM      4  O   UNL     1      51.932 154.718  26.531  0.00  0.00    -0.350 OA
BRANCH   4   5
ATOM      5  S   UNL     1      52.708 154.623  24.958  0.00  0.00    +0.143 S 
BRANCH   5   6
ATOM      6  C   UNL     1      54.264 153.792  25.194  0.00  0.00    +0.254 A 
ATOM      7  N   UNL     1      54.451 152.557  25.688  0.00  0.00    -0.166 N 
ATOM      8  N   UNL     1      55.757 152.359  25.681  0.00  0.00    -0.037 NA
ATOM      9  N   UNL     1      56.353 153.419  25.204  0.00  0.00    -0.022 NA
ATOM     10  N   UNL     1      55.450 154.339  24.888  0.00  0.00    -0.098 NA
BRANCH   7  11
ATOM     11  C   UNL     1      53.421 151.683  26.118  0.00  0.00    +0.168 C 
ATOM     12  C   UNL     1      53.307 150.403  25.615  0.00  0.00    +0.039 C 
ATOM     13  C   UNL     1      52.326 149.519  26.000  0.00  0.00    +0.024 C 
ATOM     14  C   UNL     1      51.403 149.949  26.949  0.00  0.00    +0.022 C 
ATOM     15  C   UNL     1      51.522 151.229  27.449  0.00  0.00    +0.101 C 
ATOM     16  N   UNL     1      52.497 152.058  27.043  0.00  0.00    -0.225 NA
ATOM     17  C   UNL     1      52.217 148.239  25.492  0.00  0.00    +0.099 C 
ATOM     18  N   UNL     1      53.121 147.864  24.583  0.00  0.00    -0.242 NA
ATOM     19  C   UNL     1      54.097 148.698  24.178  0.00  0.00    +0.099 C 
ATOM     20  C   UNL     1      54.215 149.968  24.675  0.00  0.00    +0.024 C 
ENDBRANCH   7  11
ENDBRANCH   5   6
ENDBRANCH   4   5
ENDBRANCH   2   4
ENDBRANCH   1   2
BRANCH   1  21
ATOM     21  N   UNL     1      52.733 156.708  29.136  0.00  0.00    +0.039 NA
BRANCH  21  22
ATOM     22  C   UNL     1      51.323 156.784  28.923  0.00  0.00    +0.245 C 
ATOM     23  S   UNL     1      50.702 158.498  29.163  0.00  0.00    -0.089 S 
ATOM     24  C   UNL     1      49.328 158.108  30.318  0.00  0.00    +0.151 C 
ATOM     25  N   UNL     1      49.265 156.667  30.171  0.00  0.00    -0.293 N 
ATOM     26  C   UNL     1      50.523 156.078  29.957  0.00  0.00    +0.253 C 
ATOM     27  O   UNL     1      50.942 155.062  30.566  0.00  0.00    -0.272 OA
ATOM     28  H   UNL     1      48.426 156.153  30.216  0.00  0.00    +0.150 HD
ENDBRANCH  21  22
BRANCH  21  29
ATOM     29  S   UNL     1      53.532 158.218  29.080  0.00  0.00    +0.143 S 
ATOM     30  O   UNL     1      54.256 158.395  27.754  0.00  0.00    -0.137 OA
ATOM     31  O   UNL     1      54.584 158.232  30.171  0.00  0.00    -0.137 OA
BRANCH  29  32
ATOM     32  N   UNL     1      52.488 159.550  29.351  0.00  0.00    -0.108 NA
ATOM     33  H   UNL     1      51.541 159.198  29.489  0.00  0.00    +0.169 HD
BRANCH  32  34
ATOM     34  N   UNL     1      52.849 160.300  30.462  0.00  0.00    -0.202 NA
ATOM     35  C   UNL     1      51.753 161.176  30.899  0.00  0.00    +0.090 C 
ATOM     36  C   UNL     1      52.439 161.974  31.987  0.00  0.00    +0.020 C 
ATOM     37  C   UNL     1      53.835 162.119  31.459  0.00  0.00    +0.020 C 
ATOM     38  C   UNL     1      53.877 161.282  30.174  0.00  0.00    +0.090 C 
ENDBRANCH  32  34
ENDBRANCH  29  32
ENDBRANCH  21  29
ENDBRANCH   1  21
TORSDOF 10
