REMARK  Name = =
REMARK  1 active torsions:
REMARK  status: ('A' for Active; 'I' for Inactive)
REMARK    1  A    between atoms: N_1  and  C_16
REMARK                            x       y       z     vdW  Elec       q    Type
REMARK                         _______ _______ _______ _____ _____    ______ ____
ROOT
ATOM      1  N   UNL     1      -2.234  -6.104  31.883  0.00  0.00    -0.224 N 
ATOM      2  C   UNL     1      -0.970  -6.568  32.299  0.00  0.00    +0.053 C 
ATOM      3  C   UNL     1      -1.022  -7.837  32.807  0.00  0.00    +0.001 C 
ATOM      4  C   UNL     1       0.073  -8.528  33.285  0.00  0.00    -0.003 C 
ATOM      5  C   UNL     1       1.304  -7.888  33.243  0.00  0.00    -0.000 C 
ATOM      6  C   UNL     1       1.394  -6.610  32.738  0.00  0.00    +0.001 C 
ATOM      7  C   UNL     1       0.275  -5.947  32.267  0.00  0.00    +0.015 C 
ATOM      8  C   UNL     1      -2.440  -8.275  32.733  0.00  0.00    +0.113 C 
ATOM      9  C   UNL     1      -3.171  -7.143  32.141  0.00  0.00    +0.236 C 
ATOM     10  O   UNL     1      -4.406  -7.123  31.912  0.00  0.00    -0.274 OA
ENDROOT
BRANCH   1  16
ATOM     11  C   UNL     1      -4.079  -4.656  31.161  0.00  0.00    +0.159 C 
ATOM     12  N   UNL     1      -4.241  -3.972  29.892  0.00  0.00    -0.265 N 
ATOM     13  C   UNL     1      -3.004  -4.052  29.182  0.00  0.00    +0.403 C 
ATOM     14  O   UNL     1      -2.795  -3.514  28.043  0.00  0.00    -0.226 OA
ATOM     15  O   UNL     1      -2.149  -4.793  29.959  0.00  0.00    -0.417 OA
ATOM     16  C   UNL     1      -2.595  -4.817  31.293  0.00  0.00    +0.275 C 
ATOM     17  H   UNL     1      -5.061  -3.529  29.575  0.00  0.00    +0.153 HD
ENDBRANCH   1  16
TORSDOF 1
