REMARK  Name = =
REMARK  12 active torsions:
REMARK  status: ('A' for Active; 'I' for Inactive)
REMARK    1  A    between atoms: N_1  and  N_23
REMARK    2  A    between atoms: C_3  and  N_7
REMARK    3  A    between atoms: C_13  and  O_16
REMARK    4  A    between atoms: O_16  and  P_17
REMARK    5  A    between atoms: P_17  and  C_19
REMARK    6  A    between atoms: P_17  and  O_22
REMARK    7  A    between atoms: C_19  and  O_21
REMARK    8  A    between atoms: N_23  and  S_24
REMARK    9  A    between atoms: N_23  and  C_31
REMARK   10  A    between atoms: S_24  and  N_27
REMARK   11  A    between atoms: C_28  and  O_30
REMARK   12  A    between atoms: C_31  and  C_34
REMARK                            x       y       z     vdW  Elec       q    Type
REMARK                         _______ _______ _______ _____ _____    ______ ____
ROOT
ATOM      1  N   UNL     1      50.861 159.147  29.847  0.00  0.00    -0.225 N 
ATOM      2  C   UNL     1      50.620 158.131  28.925  0.00  0.00    +0.153 C 
ATOM      3  C   UNL     1      51.799 157.396  28.413  0.00  0.00    +0.194 C 
ATOM      4  N   UNL     1      53.083 157.938  28.686  0.00  0.00    -0.214 NA
ATOM      5  C   UNL     1      53.262 158.579  29.926  0.00  0.00    +0.099 C 
ATOM      6  C   UNL     1      52.060 159.097  30.604  0.00  0.00    +0.096 C 
ENDROOT
BRANCH   3   7
ATOM      7  N   UNL     1      51.756 155.962  28.780  0.00  0.00    -0.251 N 
ATOM      8  C   UNL     1      51.471 155.470  30.000  0.00  0.00    +0.169 C 
ATOM      9  N   UNL     1      51.526 154.140  29.954  0.00  0.00    -0.226 NA
ATOM     10  C   UNL     1      51.842 153.752  28.720  0.00  0.00    +0.097 C 
ATOM     11  C   UNL     1      51.984 154.900  27.995  0.00  0.00    +0.075 C 
ATOM     12  C   UNL     1      52.313 154.833  26.670  0.00  0.00    +0.054 C 
ATOM     13  C   UNL     1      52.512 153.623  26.024  0.00  0.00    +0.149 C 
ATOM     14  C   UNL     1      52.364 152.470  26.769  0.00  0.00    +0.039 C 
ATOM     15  C   UNL     1      52.033 152.508  28.104  0.00  0.00    +0.024 C 
BRANCH  13  16
ATOM     16  O   UNL     1      52.844 153.578  24.679  0.00  0.00    -0.416 OA
BRANCH  16  17
ATOM     17  P   UNL     1      54.438 153.604  24.085  0.00  0.00    +0.486 P 
ATOM     18  O   UNL     1      55.050 154.991  24.278  0.00  0.00    -0.233 OA
BRANCH  17  19
ATOM     19  C   UNL     1      55.475 152.407  24.905  0.00  0.00    +0.431 C 
ATOM     20  O   UNL     1      56.476 152.754  25.587  0.00  0.00    -0.235 OA
BRANCH  19  21
ATOM     21  O   UNL     1      55.191 151.051  24.803  0.00  0.00    -0.471 OA
ATOM     22  H   UNL     1      54.453 150.763  24.302  0.00  0.00    +0.296 HD
ENDBRANCH  19  21
ENDBRANCH  17  19
BRANCH  17  23
ATOM     23  O   UNL     1      54.499 153.274  22.417  0.00  0.00    -0.307 OA
ATOM     24  H   UNL     1      53.943 153.910  21.941  0.00  0.00    +0.221 HD
ENDBRANCH  17  23
ENDBRANCH  16  17
ENDBRANCH  13  16
ENDBRANCH   3   7
BRANCH   1  25
ATOM     25  N   UNL     1      49.765 159.658  30.540  0.00  0.00    -0.068 NA
BRANCH  25  26
ATOM     26  S   UNL     1      48.271 159.362  29.797  0.00  0.00    +0.133 S 
ATOM     27  O   UNL     1      47.860 160.344  28.773  0.00  0.00    -0.136 OA
ATOM     28  O   UNL     1      47.181 159.231  30.880  0.00  0.00    -0.136 OA
BRANCH  26  29
ATOM     29  N   UNL     1      48.306 157.759  29.106  0.00  0.00    -0.140 N 
ATOM     30  C   UNL     1      48.659 156.628  29.856  0.00  0.00    +0.418 C 
ATOM     31  O   UNL     1      48.974 156.689  31.069  0.00  0.00    -0.225 OA
ATOM     32  H   UNL     1      48.070 157.645  28.157  0.00  0.00    +0.181 HD
BRANCH  30  33
ATOM     33  O   UNL     1      48.656 155.371  29.215  0.00  0.00    -0.465 OA
ATOM     34  H   UNL     1      48.423 155.307  28.310  0.00  0.00    +0.297 HD
ENDBRANCH  30  33
ENDBRANCH  26  29
ENDBRANCH  25  26
BRANCH  25  35
ATOM     35  C   UNL     1      50.024 161.055  30.870  0.00  0.00    +0.110 C 
ATOM     36  C   UNL     1      49.073 161.867  31.694  0.00  0.00    +0.024 C 
ATOM     37  C   UNL     1      49.259 162.158  30.238  0.00  0.00    +0.024 C 
BRANCH  35  38
ATOM     38  C   UNL     1      51.464 161.345  31.214  0.00  0.00    +0.070 C 
ATOM     39  C   UNL     1      52.377 161.787  30.270  0.00  0.00    +0.007 C 
ATOM     40  C   UNL     1      53.689 162.053  30.608  0.00  0.00    +0.035 C 
ATOM     41  C   UNL     1      54.075 161.866  31.921  0.00  0.00    +0.149 C 
ATOM     42  C   UNL     1      55.402 162.132  32.284  0.00  0.00    +0.038 C 
ATOM     43  C   UNL     1      56.338 162.574  31.372  0.00  0.00    +0.003 C 
ATOM     44  C   UNL     1      55.939 162.757  30.061  0.00  0.00    +0.000 C 
ATOM     45  C   UNL     1      54.624 162.492  29.710  0.00  0.00    +0.003 C 
ATOM     46  O   UNL     1      53.200 161.449  32.796  0.00  0.00    -0.421 OA
ATOM     47  C   UNL     1      51.949 161.192  32.489  0.00  0.00    +0.343 C 
ATOM     48  O   UNL     1      51.145 160.793  33.372  0.00  0.00    -0.245 OA
ENDBRANCH  35  38
ENDBRANCH  25  35
ENDBRANCH   1  25
TORSDOF 12
