REMARK  Name = =
REMARK  1 active torsions:
REMARK  status: ('A' for Active; 'I' for Inactive)
REMARK    1  A    between atoms: O_1  and  O_2
REMARK                            x       y       z     vdW  Elec       q    Type
REMARK                         _______ _______ _______ _____ _____    ______ ____
ROOT
ATOM      1  O   UNL     1      52.809 155.465  28.947  0.00  0.00    -0.253 OA
ATOM      2  H   UNL     1      52.470 155.632  28.054  0.00  0.00    +0.253 HD
ENDROOT
BRANCH   1   3
ATOM      3  O   UNL     1      52.059 154.560  29.538  0.00  0.00    -0.253 OA
ATOM      4  H   UNL     1      52.398 154.393  30.431  0.00  0.00    +0.253 HD
ENDBRANCH   1   3
TORSDOF 1
