REMARK  Name = =
REMARK  3 active torsions:
REMARK  status: ('A' for Active; 'I' for Inactive)
REMARK    1  A    between atoms: S_1  and  C_4
REMARK    2  A    between atoms: S_1  and  O_10
REMARK    3  A    between atoms: O_10  and  O_11
REMARK                            x       y       z     vdW  Elec       q    Type
REMARK                         _______ _______ _______ _____ _____    ______ ____
ROOT
ATOM      1  S   UNL     1      51.634 155.031  28.831  0.00  0.00    +0.040 S 
ATOM      2  O   UNL     1      52.261 156.131  29.645  0.00  0.00    -0.065 OA
ATOM      3  O   UNL     1      51.785 153.719  29.552  0.00  0.00    -0.065 OA
ENDROOT
BRANCH   1   4
ATOM      4  C   UNL     1      52.311 154.966  27.217  0.00  0.00    +0.112 C 
ATOM      5  C   UNL     1      52.364 153.742  26.544  0.00  0.00    +0.019 C 
ATOM      6  C   UNL     1      52.904 153.728  25.275  0.00  0.00    +0.001 C 
ATOM      7  C   UNL     1      53.383 154.856  24.657  0.00  0.00    +0.000 C 
ATOM      8  C   UNL     1      53.310 156.040  25.361  0.00  0.00    +0.001 C 
ATOM      9  C   UNL     1      52.782 156.128  26.637  0.00  0.00    +0.019 C 
ENDBRANCH   1   4
BRANCH   1  10
ATOM     10  O   UNL     1      49.978 155.369  28.767  0.00  0.00    -0.091 OA
BRANCH  10  11
ATOM     11  O   UNL     1      49.708 156.190  29.774  0.00  0.00    -0.227 OA
ATOM     12  H   UNL     1      48.763 156.407  29.770  0.00  0.00    +0.255 HD
ENDBRANCH  10  11
ENDBRANCH   1  10
TORSDOF 3
