REMARK  Name = =
REMARK  2 active torsions:
REMARK  status: ('A' for Active; 'I' for Inactive)
REMARK    1  A    between atoms: C_1  and  C_3
REMARK    2  A    between atoms: C_1  and  O_5
REMARK                            x       y       z     vdW  Elec       q    Type
REMARK                         _______ _______ _______ _____ _____    ______ ____
ROOT
ATOM      1  C   UNL     1      -2.187  -3.541  30.068  0.00  0.00    +0.381 C 
ATOM      2  O   UNL     1      -1.515  -2.482  30.047  0.00  0.00    -0.241 OA
ENDROOT
BRANCH   1   3
ATOM      3  C   UNL     1      -3.618  -3.445  29.853  0.00  0.00    +0.315 C 
ATOM      4  O   UNL     1      -4.328  -4.460  29.569  0.00  0.00    -0.276 OA
ENDBRANCH   1   3
BRANCH   1   5
ATOM      5  O   UNL     1      -1.523  -4.727  30.295  0.00  0.00    -0.475 OA
ATOM      6  H   UNL     1      -1.999  -5.534  30.316  0.00  0.00    +0.296 HD
ENDBRANCH   1   5
TORSDOF 2
