REMARK  Name = =
REMARK  0 active torsions:
REMARK  status: ('A' for Active; 'I' for Inactive)
REMARK                            x       y       z     vdW  Elec       q    Type
REMARK                         _______ _______ _______ _____ _____    ______ ____
ROOT
ATOM      1  O   UNL     1      -4.269  -4.046  30.534  0.00  0.00    -0.349 OA
ATOM      2  C   UNL     1      -3.326  -4.253  29.578  0.00  0.00    +0.147 C 
ATOM      3  C   UNL     1      -2.095  -4.974  30.031  0.00  0.00    +0.058 C 
ATOM      4  C   UNL     1      -2.530  -6.209  30.744  0.00  0.00    -0.026 C 
ATOM      5  C   UNL     1      -3.523  -6.043  31.617  0.00  0.00    +0.001 C 
ATOM      6  C   UNL     1      -4.048  -4.644  31.747  0.00  0.00    +0.168 C 
ENDROOT
TORSDOF 0
