REMARK  Name = =
REMARK  2 active torsions:
REMARK  status: ('A' for Active; 'I' for Inactive)
REMARK    1  A    between atoms: C_5  and  N_7
REMARK    2  A    between atoms: N_7  and  S_8
REMARK                            x       y       z     vdW  Elec       q    Type
REMARK                         _______ _______ _______ _____ _____    ______ ____
ROOT
ATOM      1  O   UNL     1      -2.887  -2.800  29.829  0.00  0.00    -0.352 OA
ATOM      2  C   UNL     1      -1.672  -2.516  29.250  0.00  0.00    +0.142 C 
ATOM      3  C   UNL     1      -0.513  -3.273  29.864  0.00  0.00    +0.034 C 
ATOM      4  C   UNL     1      -0.869  -4.726  29.765  0.00  0.00    +0.023 C 
ATOM      5  C   UNL     1      -2.100  -5.013  30.198  0.00  0.00    +0.104 C 
ATOM      6  C   UNL     1      -2.890  -3.869  30.695  0.00  0.00    +0.159 C 
ENDROOT
BRANCH   5   7
ATOM      7  N   UNL     1      -2.616  -6.330  30.183  0.00  0.00    -0.185 NA
ATOM      8  H   UNL     1      -2.285  -6.743  29.311  0.00  0.00    +0.148 HD
BRANCH   7   9
ATOM      9  S   UNL     1      -2.323  -7.499  31.379  0.00  0.00    +0.020 S 
ATOM     10  O   UNL     1      -2.038  -6.795  32.697  0.00  0.00    -0.161 OA
ATOM     11  O   UNL     1      -1.054  -8.221  31.022  0.00  0.00    -0.161 OA
ATOM     12  H   UNL     1      -3.392  -8.334  31.473  0.00  0.00    +0.229 HD
ENDBRANCH   7   9
ENDBRANCH   5   7
TORSDOF 2
