REMARK  Name = =
REMARK  5 active torsions:
REMARK  status: ('A' for Active; 'I' for Inactive)
REMARK    1  A    between atoms: C_1  and  C_8
REMARK    2  A    between atoms: C_3  and  C_17
REMARK    3  A    between atoms: C_4  and  O_20
REMARK    4  A    between atoms: C_11  and  N_13
REMARK    5  A    between atoms: N_13  and  S_14
REMARK                            x       y       z     vdW  Elec       q    Type
REMARK                         _______ _______ _______ _____ _____    ______ ____
ROOT
ATOM      1  C   UNL     1      -1.787  -1.956  29.506  0.00  0.00    +0.005 C 
ATOM      2  C   UNL     1      -2.812  -1.511  30.352  0.00  0.00    +0.006 C 
ATOM      3  C   UNL     1      -3.629  -0.466  29.991  0.00  0.00    +0.086 C 
ATOM      4  C   UNL     1      -3.413   0.136  28.773  0.00  0.00    +0.138 C 
ATOM      5  C   UNL     1      -2.405  -0.304  27.944  0.00  0.00    +0.037 C 
ATOM      6  C   UNL     1      -1.586  -1.354  28.307  0.00  0.00    +0.001 C 
ENDROOT
BRANCH   1   8
ATOM      7  O   UNL     1      -1.914  -3.896  30.721  0.00  0.00    -0.345 OA
ATOM      8  C   UNL     1      -1.005  -3.086  30.045  0.00  0.00    +0.142 C 
ATOM      9  C   UNL     1      -0.170  -3.842  29.096  0.00  0.00    +0.061 C 
ATOM     10  C   UNL     1      -0.839  -5.049  28.543  0.00  0.00    -0.009 C 
ATOM     11  C   UNL     1      -1.556  -5.751  29.392  0.00  0.00    +0.067 C 
ATOM     12  C   UNL     1      -1.585  -5.221  30.786  0.00  0.00    +0.184 C 
BRANCH  11  13
ATOM     13  N   UNL     1      -2.261  -6.925  29.049  0.00  0.00    -0.224 N 
ATOM     14  H   UNL     1      -3.100  -6.875  28.537  0.00  0.00    +0.173 HD
BRANCH  13  15
ATOM     15  S   UNL     1      -1.626  -8.443  29.542  0.00  0.00    +0.033 S 
ATOM     16  O   UNL     1      -2.726  -9.378  29.989  0.00  0.00    -0.158 OA
ATOM     17  O   UNL     1      -0.647  -8.201  30.653  0.00  0.00    -0.158 OA
ATOM     18  H   UNL     1      -1.002  -9.041  28.492  0.00  0.00    +0.233 HD
ENDBRANCH  13  15
ENDBRANCH  11  13
ENDBRANCH   1   8
BRANCH   3  19
ATOM     19  C   UNL     1      -4.707   0.017  30.856  0.00  0.00    +0.246 C 
ATOM     20  O   UNL     1      -4.803  -0.420  32.031  0.00  0.00    -0.270 OA
ATOM     21  N   UNL     1      -5.638   0.972  30.375  0.00  0.00    -0.325 N 
ATOM     22  H   UNL     1      -5.562   1.314  29.455  0.00  0.00    +0.145 HD
ATOM     23  H   UNL     1      -6.361   1.294  30.961  0.00  0.00    +0.145 HD
ENDBRANCH   3  19
BRANCH   4  24
ATOM     24  O   UNL     1      -4.243   1.193  28.410  0.00  0.00    -0.505 OA
ATOM     25  H   UNL     1      -4.923   1.476  28.990  0.00  0.00    +0.292 HD
ENDBRANCH   4  24
TORSDOF 5
