REMARK  Name = =
REMARK  6 active torsions:
REMARK  status: ('A' for Active; 'I' for Inactive)
REMARK    1  A    between atoms: C_2  and  C_15
REMARK    2  A    between atoms: C_3  and  N_7
REMARK    3  A    between atoms: C_5  and  N_25
REMARK    4  A    between atoms: C_17  and  C_21
REMARK    5  A    between atoms: C_18  and  O_24
REMARK    6  A    between atoms: N_25  and  S_26
REMARK                            x       y       z     vdW  Elec       q    Type
REMARK                         _______ _______ _______ _____ _____    ______ ____
ROOT
ATOM      1  O   UNL     1      -0.509  -2.932  30.557  0.00  0.00    -0.344 OA
ATOM      2  C   UNL     1      -1.474  -3.876  30.264  0.00  0.00    +0.157 C 
ATOM      3  C   UNL     1      -1.444  -4.326  28.828  0.00  0.00    +0.113 C 
ATOM      4  C   UNL     1      -0.103  -4.927  28.634  0.00  0.00    +0.006 C 
ATOM      5  C   UNL     1       0.928  -4.375  29.240  0.00  0.00    +0.069 C 
ATOM      6  C   UNL     1       0.730  -3.180  30.076  0.00  0.00    +0.184 C 
ENDROOT
BRANCH   3   7
ATOM      7  N   UNL     1      -1.870  -3.414  27.849  0.00  0.00    -0.265 NA
ATOM      8  C   UNL     1      -2.246  -2.110  28.227  0.00  0.00    +0.094 C 
ATOM      9  C   UNL     1      -2.817  -1.367  27.023  0.00  0.00    +0.111 C 
ATOM     10  N   UNL     1      -2.037  -1.582  25.829  0.00  0.00    -0.270 N 
ATOM     11  C   UNL     1      -0.751  -2.228  25.986  0.00  0.00    +0.111 C 
ATOM     12  C   UNL     1      -1.005  -3.525  26.701  0.00  0.00    +0.094 C 
ATOM     13  C   UNL     1      -2.518  -1.179  24.567  0.00  0.00    +0.303 C 
ATOM     14  O   UNL     1      -1.891  -1.339  23.495  0.00  0.00    -0.265 OA
ENDBRANCH   3   7
BRANCH   2  15
ATOM     15  C   UNL     1      -2.801  -3.569  30.792  0.00  0.00    +0.007 C 
ATOM     16  C   UNL     1      -3.308  -2.297  30.798  0.00  0.00    +0.006 C 
ATOM     17  C   UNL     1      -4.579  -2.008  31.297  0.00  0.00    +0.086 C 
ATOM     18  C   UNL     1      -5.374  -3.009  31.805  0.00  0.00    +0.138 C 
ATOM     19  C   UNL     1      -4.877  -4.291  31.806  0.00  0.00    +0.037 C 
ATOM     20  C   UNL     1      -3.622  -4.562  31.310  0.00  0.00    +0.001 C 
BRANCH  17  21
ATOM     21  C   UNL     1      -5.051  -0.626  31.268  0.00  0.00    +0.246 C 
ATOM     22  O   UNL     1      -4.373   0.283  30.747  0.00  0.00    -0.270 OA
ATOM     23  N   UNL     1      -6.312  -0.308  31.845  0.00  0.00    -0.325 N 
ATOM     24  H   UNL     1      -6.856  -1.016  32.259  0.00  0.00    +0.145 HD
ATOM     25  H   UNL     1      -6.640   0.620  31.830  0.00  0.00    +0.145 HD
ENDBRANCH  17  21
BRANCH  18  26
ATOM     26  O   UNL     1      -6.655  -2.716  32.308  0.00  0.00    -0.505 OA
ATOM     27  H   UNL     1      -6.972  -1.834  32.297  0.00  0.00    +0.292 HD
ENDBRANCH  18  26
ENDBRANCH   2  15
BRANCH   5  28
ATOM     28  N   UNL     1       2.252  -4.929  29.078  0.00  0.00    -0.224 N 
ATOM     29  H   UNL     1       2.393  -5.903  29.116  0.00  0.00    +0.173 HD
BRANCH  28  30
ATOM     30  S   UNL     1       3.576  -3.871  28.818  0.00  0.00    +0.033 S 
ATOM     31  O   UNL     1       4.872  -4.626  28.687  0.00  0.00    -0.158 OA
ATOM     32  O   UNL     1       3.351  -3.113  27.552  0.00  0.00    -0.158 OA
ATOM     33  H   UNL     1       3.661  -3.037  29.889  0.00  0.00    +0.233 HD
ENDBRANCH  28  30
ENDBRANCH   5  28
TORSDOF 6
