REMARK  Name = =
REMARK  6 active torsions:
REMARK  status: ('A' for Active; 'I' for Inactive)
REMARK    1  A    between atoms: O_2  and  O_3
REMARK    2  A    between atoms: C_4  and  O_6
REMARK    3  A    between atoms: C_8  and  C_10
REMARK    4  A    between atoms: C_10  and  C_12
REMARK    5  A    between atoms: C_12  and  O_14
REMARK    6  A    between atoms: O_14  and  N_15
REMARK                            x       y       z     vdW  Elec       q    Type
REMARK                         _______ _______ _______ _____ _____    ______ ____
ROOT
ATOM      1  P   UNL     1      -0.188  -7.805  32.216  0.00  0.00    +0.000 P 
ENDROOT
TORSDOF 0
REMARK  Name = =
REMARK  6 active torsions:
REMARK  status: ('A' for Active; 'I' for Inactive)
REMARK    1  A    between atoms: O_2  and  O_3
REMARK    2  A    between atoms: C_4  and  O_6
REMARK    3  A    between atoms: C_8  and  C_10
REMARK    4  A    between atoms: C_10  and  C_12
REMARK    5  A    between atoms: C_12  and  O_14
REMARK    6  A    between atoms: O_14  and  N_15
REMARK                            x       y       z     vdW  Elec       q    Type
REMARK                         _______ _______ _______ _____ _____    ______ ____
ROOT
ATOM      1  O   UNL     1       0.818  -8.436  33.123  0.00  0.00    -0.253 OA
ATOM      2  H   UNL     1       0.214  -7.784  33.511  0.00  0.00    +0.253 HD
ENDROOT
BRANCH   1   3
ATOM      3  O   UNL     1      -0.004  -9.451  32.233  0.00  0.00    -0.253 OA
ATOM      4  H   UNL     1       0.600 -10.103  31.845  0.00  0.00    +0.253 HD
ENDBRANCH   1   3
TORSDOF 1
REMARK  Name = =
REMARK  6 active torsions:
REMARK  status: ('A' for Active; 'I' for Inactive)
REMARK    1  A    between atoms: O_2  and  O_3
REMARK    2  A    between atoms: C_4  and  O_6
REMARK    3  A    between atoms: C_8  and  C_10
REMARK    4  A    between atoms: C_10  and  C_12
REMARK    5  A    between atoms: C_12  and  O_14
REMARK    6  A    between atoms: O_14  and  N_15
REMARK                            x       y       z     vdW  Elec       q    Type
REMARK                         _______ _______ _______ _____ _____    ______ ____
ROOT
ATOM      1  C   UNL     1      -1.347  -7.510  33.527  0.00  0.00    +0.415 C 
ATOM      2  O   UNL     1      -2.253  -8.305  33.835  0.00  0.00    -0.238 OA
ENDROOT
BRANCH   1   3
ATOM      3  O   UNL     1      -1.219  -6.322  34.233  0.00  0.00    -0.473 OA
ATOM      4  H   UNL     1      -0.541  -5.715  34.010  0.00  0.00    +0.296 HD
ENDBRANCH   1   3
TORSDOF 1
REMARK  Name = =
REMARK  6 active torsions:
REMARK  status: ('A' for Active; 'I' for Inactive)
REMARK    1  A    between atoms: O_2  and  O_3
REMARK    2  A    between atoms: C_4  and  O_6
REMARK    3  A    between atoms: C_8  and  C_10
REMARK    4  A    between atoms: C_10  and  C_12
REMARK    5  A    between atoms: C_12  and  O_14
REMARK    6  A    between atoms: O_14  and  N_15
REMARK                            x       y       z     vdW  Elec       q    Type
REMARK                         _______ _______ _______ _____ _____    ______ ____
ROOT
ATOM      1  C   UNL     1       2.362  -4.521  29.827  0.00  0.00    +0.405 C 
ATOM      2  O   UNL     1       2.650  -5.298  28.894  0.00  0.00    -0.239 OA
ENDROOT
BRANCH   1   3
ATOM      3  C   UNL     1       2.199  -5.006  31.191  0.00  0.00    +0.351 C 
ATOM      4  O   UNL     1       2.324  -4.204  32.183  0.00  0.00    -0.272 OA
BRANCH   3   6
ATOM      5  O   UNL     1       1.195  -6.916  32.489  0.00  0.00    -0.237 OA
ATOM      6  C   UNL     1       1.894  -6.407  31.393  0.00  0.00    +0.433 C 
ATOM      7  O   UNL     1       2.279  -7.232  30.530  0.00  0.00    -0.237 OA
ENDBRANCH   3   6
ENDBRANCH   1   3
BRANCH   1   8
ATOM      8  O   UNL     1       2.189  -3.163  29.580  0.00  0.00    -0.366 OA
BRANCH   8   9
ATOM      9  N   UNL     1       2.040  -2.730  28.291  0.00  0.00    -0.165 NA
ATOM     10  H   UNL     1       1.925  -1.717  28.284  0.00  0.00    +0.163 HD
ATOM     11  H   UNL     1       1.217  -3.169  27.878  0.00  0.00    +0.163 HD
ENDBRANCH   8   9
ENDBRANCH   1   8
TORSDOF 4
REMARK  Name = =
REMARK  6 active torsions:
REMARK  status: ('A' for Active; 'I' for Inactive)
REMARK    1  A    between atoms: O_2  and  O_3
REMARK    2  A    between atoms: C_4  and  O_6
REMARK    3  A    between atoms: C_8  and  C_10
REMARK    4  A    between atoms: C_10  and  C_12
REMARK    5  A    between atoms: C_12  and  O_14
REMARK    6  A    between atoms: O_14  and  N_15
REMARK                            x       y       z     vdW  Elec       q    Type
REMARK                         _______ _______ _______ _____ _____    ______ ____
ROOT
ATOM      1  O   UNL     1      -1.245  -7.462  30.919  0.00  0.00    -0.078 OA
ATOM      2  N   UNL     1      -2.448  -6.880  31.237  0.00  0.00    -0.157 N 
ATOM      3  C   UNL     1      -3.539  -7.448  31.781  0.00  0.00    +0.209 C 
ATOM      4  N   UNL     1      -4.467  -6.493  31.908  0.00  0.00    -0.205 NA
ATOM      5  C   UNL     1      -3.962  -5.325  31.443  0.00  0.00    +0.169 A 
ATOM      6  C   UNL     1      -2.676  -5.560  31.013  0.00  0.00    +0.181 A 
ATOM      7  C   UNL     1      -1.955  -4.514  30.495  0.00  0.00    +0.282 A 
ATOM      8  O   UNL     1      -0.781  -4.702  30.096  0.00  0.00    -0.265 OA
ATOM      9  N   UNL     1      -2.460  -3.273  30.394  0.00  0.00    -0.273 N 
ATOM     10  C   UNL     1      -3.724  -3.052  30.819  0.00  0.00    +0.328 A 
ATOM     11  O   UNL     1      -4.231  -1.882  30.735  0.00  0.00    -0.247 OA
ATOM     12  N   UNL     1      -4.437  -4.069  31.327  0.00  0.00    -0.291 N 
ATOM     13  H   UNL     1      -1.921  -2.540  30.018  0.00  0.00    +0.173 HD
ATOM     14  H   UNL     1      -5.356  -3.888  31.631  0.00  0.00    +0.172 HD
ENDROOT
TORSDOF 0
