REMARK  Name = =
REMARK  6 active torsions:
REMARK  status: ('A' for Active; 'I' for Inactive)
REMARK    1  A    between atoms: C_2  and  C_12
REMARK    2  A    between atoms: C_31  and  O_33
REMARK    3  A    between atoms: C_35  and  C_37
REMARK    4  A    between atoms: C_37  and  C_39
REMARK    5  A    between atoms: C_39  and  O_41
REMARK    6  A    between atoms: O_41  and  N_42
REMARK                            x       y       z     vdW  Elec       q    Type
REMARK                         _______ _______ _______ _____ _____    ______ ____
ROOT
ATOM      1  C   UNL     1       0.439  -6.191  29.202  0.00  0.00    +0.177 C 
ATOM      2  O   UNL     1      -0.469  -7.010  29.841  0.00  0.00    -0.346 OA
ATOM      3  C   UNL     1      -0.863  -6.556  31.082  0.00  0.00    +0.175 C 
ATOM      4  C   UNL     1       0.288  -6.063  31.921  0.00  0.00    +0.174 C 
ATOM      5  O   UNL     1       0.209  -6.450  33.237  0.00  0.00    -0.326 OA
ATOM      6  C   UNL     1       1.226  -5.798  33.936  0.00  0.00    +0.264 C 
ATOM      7  O   UNL     1       1.863  -6.663  34.824  0.00  0.00    -0.321 OA
ATOM      8  C   UNL     1       2.440  -5.886  35.834  0.00  0.00    +0.209 C 
ATOM      9  C   UNL     1       3.059  -4.667  35.224  0.00  0.00    +0.183 C 
ATOM     10  O   UNL     1       3.251  -3.643  35.843  0.00  0.00    -0.293 OA
ATOM     11  C   UNL     1       3.442  -4.745  33.799  0.00  0.00    +0.102 C 
ATOM     12  C   UNL     1       2.279  -5.237  33.005  0.00  0.00    +0.179 C 
ATOM     13  O   UNL     1       2.652  -6.256  32.134  0.00  0.00    -0.350 OA
ATOM     14  C   UNL     1       1.583  -6.659  31.354  0.00  0.00    +0.148 C 
ATOM     15  C   UNL     1       1.732  -6.032  29.968  0.00  0.00    +0.070 C 
ENDROOT
BRANCH   1  17
ATOM     16  N   UNL     1       0.639  -3.763  28.583  0.00  0.00    -0.107 N 
ATOM     17  C   UNL     1      -0.104  -4.837  28.926  0.00  0.00    +0.189 A 
ATOM     18  N   UNL     1      -1.383  -4.419  28.958  0.00  0.00    -0.208 NA
ATOM     19  C   UNL     1      -1.457  -3.114  28.645  0.00  0.00    +0.169 A 
ATOM     20  C   UNL     1      -0.153  -2.710  28.408  0.00  0.00    +0.193 A 
ATOM     21  C   UNL     1       0.041  -1.387  28.063  0.00  0.00    +0.283 A 
ATOM     22  O   UNL     1       1.222  -1.022  27.847  0.00  0.00    -0.265 OA
ATOM     23  N   UNL     1      -0.959  -0.496  27.949  0.00  0.00    -0.273 N 
ATOM     24  C   UNL     1      -2.205  -0.945  28.193  0.00  0.00    +0.328 A 
ATOM     25  O   UNL     1      -3.164  -0.135  28.095  0.00  0.00    -0.247 OA
ATOM     26  N   UNL     1      -2.438  -2.209  28.528  0.00  0.00    -0.291 N 
ATOM     27  O   UNL     1       2.030  -3.754  28.432  0.00  0.00    -0.162 OA
ATOM     28  H   UNL     1      -0.789   0.441  27.699  0.00  0.00    +0.173 HD
ATOM     29  H   UNL     1      -3.366  -2.491  28.697  0.00  0.00    +0.172 HD
ENDBRANCH   1  17
TORSDOF 1
REMARK  Name = =
REMARK  6 active torsions:
REMARK  status: ('A' for Active; 'I' for Inactive)
REMARK    1  A    between atoms: C_2  and  C_12
REMARK    2  A    between atoms: C_31  and  O_33
REMARK    3  A    between atoms: C_35  and  C_37
REMARK    4  A    between atoms: C_37  and  C_39
REMARK    5  A    between atoms: C_39  and  O_41
REMARK    6  A    between atoms: O_41  and  N_42
REMARK                            x       y       z     vdW  Elec       q    Type
REMARK                         _______ _______ _______ _____ _____    ______ ____
ROOT
ATOM      1  P   UNL     1       2.690  -4.012  26.886  0.00  0.00    +0.000 P 
ENDROOT
TORSDOF 0
REMARK  Name = =
REMARK  6 active torsions:
REMARK  status: ('A' for Active; 'I' for Inactive)
REMARK    1  A    between atoms: C_2  and  C_12
REMARK    2  A    between atoms: C_31  and  O_33
REMARK    3  A    between atoms: C_35  and  C_37
REMARK    4  A    between atoms: C_37  and  C_39
REMARK    5  A    between atoms: C_39  and  O_41
REMARK    6  A    between atoms: O_41  and  N_42
REMARK                            x       y       z     vdW  Elec       q    Type
REMARK                         _______ _______ _______ _____ _____    ______ ____
ROOT
ATOM      1  O   HOH     1       3.187  -2.896  27.769  0.00  0.00    -0.253 OA
ATOM      2  H   HOH     0       4.157  -2.896  27.769  0.00  0.00    +0.253 HD
ENDROOT
TORSDOF 0
REMARK  Name = =
REMARK  6 active torsions:
REMARK  status: ('A' for Active; 'I' for Inactive)
REMARK    1  A    between atoms: C_2  and  C_12
REMARK    2  A    between atoms: C_31  and  O_33
REMARK    3  A    between atoms: C_35  and  C_37
REMARK    4  A    between atoms: C_37  and  C_39
REMARK    5  A    between atoms: C_39  and  O_41
REMARK    6  A    between atoms: O_41  and  N_42
REMARK                            x       y       z     vdW  Elec       q    Type
REMARK                         _______ _______ _______ _____ _____    ______ ____
ROOT
ATOM      1  O   HOH     1       1.521  -4.886  26.020  0.00  0.00    -0.253 OA
ATOM      2  H   HOH     0       2.491  -4.886  26.020  0.00  0.00    +0.253 HD
ENDROOT
TORSDOF 0
REMARK  Name = =
REMARK  6 active torsions:
REMARK  status: ('A' for Active; 'I' for Inactive)
REMARK    1  A    between atoms: C_2  and  C_12
REMARK    2  A    between atoms: C_31  and  O_33
REMARK    3  A    between atoms: C_35  and  C_37
REMARK    4  A    between atoms: C_37  and  C_39
REMARK    5  A    between atoms: C_39  and  O_41
REMARK    6  A    between atoms: O_41  and  N_42
REMARK                            x       y       z     vdW  Elec       q    Type
REMARK                         _______ _______ _______ _____ _____    ______ ____
ROOT
ATOM      1  C   UNL     1       4.109  -5.057  26.796  0.00  0.00    +0.415 C 
ATOM      2  O   UNL     1       5.183  -4.589  26.292  0.00  0.00    -0.238 OA
ENDROOT
BRANCH   1   3
ATOM      3  O   UNL     1       4.128  -6.358  27.240  0.00  0.00    -0.473 OA
ATOM      4  H   UNL     1       3.358  -6.736  27.616  0.00  0.00    +0.296 HD
ENDBRANCH   1   3
TORSDOF 1
REMARK  Name = =
REMARK  6 active torsions:
REMARK  status: ('A' for Active; 'I' for Inactive)
REMARK    1  A    between atoms: C_2  and  C_12
REMARK    2  A    between atoms: C_31  and  O_33
REMARK    3  A    between atoms: C_35  and  C_37
REMARK    4  A    between atoms: C_37  and  C_39
REMARK    5  A    between atoms: C_39  and  O_41
REMARK    6  A    between atoms: O_41  and  N_42
REMARK                            x       y       z     vdW  Elec       q    Type
REMARK                         _______ _______ _______ _____ _____    ______ ____
ROOT
ATOM      1  C   UNL     1       3.230  -0.201  23.338  0.00  0.00    +0.405 C 
ATOM      2  O   UNL     1       4.230   0.270  23.931  0.00  0.00    -0.239 OA
ENDROOT
BRANCH   1   3
ATOM      3  C   UNL     1       2.466  -1.326  23.849  0.00  0.00    +0.351 C 
ATOM      4  O   UNL     1       1.401  -1.690  23.304  0.00  0.00    -0.272 OA
BRANCH   3   6
ATOM      5  O   UNL     1       2.238  -3.107  25.504  0.00  0.00    -0.237 OA
ATOM      6  C   UNL     1       2.940  -2.043  25.011  0.00  0.00    +0.433 C 
ATOM      7  O   UNL     1       4.000  -1.708  25.587  0.00  0.00    -0.237 OA
ENDBRANCH   3   6
ENDBRANCH   1   3
BRANCH   1   8
ATOM      8  O   UNL     1       2.880   0.423  22.133  0.00  0.00    -0.366 OA
BRANCH   8   9
ATOM      9  N   UNL     1       3.709   1.405  21.598  0.00  0.00    -0.165 NA
ATOM     10  H   UNL     1       3.308   1.751  20.726  0.00  0.00    +0.163 HD
ATOM     11  H   UNL     1       4.631   1.009  21.415  0.00  0.00    +0.163 HD
ENDBRANCH   8   9
ENDBRANCH   1   8
TORSDOF 4
