REMARK  Name = =
REMARK  7 active torsions:
REMARK  status: ('A' for Active; 'I' for Inactive)
REMARK    1  A    between atoms: C_2  and  C_15
REMARK    2  A    between atoms: C_3  and  N_7
REMARK    3  A    between atoms: C_5  and  N_32
REMARK    4  A    between atoms: C_17  and  C_21
REMARK    5  A    between atoms: C_18  and  O_24
REMARK    6  A    between atoms: O_24  and  N_25
REMARK    7  A    between atoms: N_32  and  S_33
REMARK                            x       y       z     vdW  Elec       q    Type
REMARK                         _______ _______ _______ _____ _____    ______ ____
ROOT
ATOM      1  O   UNL     1       4.772  -8.515  27.892  0.00  0.00    -0.344 OA
ATOM      2  C   UNL     1       3.770  -8.092  27.074  0.00  0.00    +0.157 C 
ATOM      3  C   UNL     1       3.365  -9.105  26.028  0.00  0.00    +0.113 C 
ATOM      4  C   UNL     1       4.629  -9.619  25.394  0.00  0.00    +0.006 C 
ATOM      5  C   UNL     1       5.596  -9.938  26.246  0.00  0.00    +0.069 C 
ATOM      6  C   UNL     1       5.292  -9.754  27.689  0.00  0.00    +0.184 C 
ENDROOT
BRANCH   3   7
ATOM      7  N   UNL     1       2.569  -8.542  24.966  0.00  0.00    -0.265 NA
ATOM      8  C   UNL     1       3.064  -7.366  24.377  0.00  0.00    +0.094 C 
ATOM      9  C   UNL     1       3.220  -7.327  22.908  0.00  0.00    +0.111 C 
ATOM     10  N   UNL     1       2.517  -8.317  22.161  0.00  0.00    -0.270 N 
ATOM     11  C   UNL     1       1.502  -9.096  22.822  0.00  0.00    +0.111 C 
ATOM     12  C   UNL     1       2.090  -9.578  24.115  0.00  0.00    +0.094 C 
ATOM     13  C   UNL     1       2.837  -8.506  20.793  0.00  0.00    +0.303 C 
ATOM     14  O   UNL     1       3.722  -7.831  20.210  0.00  0.00    -0.265 OA
ENDBRANCH   3   7
BRANCH   2  15
ATOM     15  C   UNL     1       2.639  -7.591  27.882  0.00  0.00    +0.007 C 
ATOM     16  C   UNL     1       2.689  -6.354  28.519  0.00  0.00    +0.006 C 
ATOM     17  C   UNL     1       1.636  -5.884  29.269  0.00  0.00    +0.090 C 
ATOM     18  C   UNL     1       0.462  -6.621  29.431  0.00  0.00    +0.177 C 
ATOM     19  C   UNL     1       0.413  -7.845  28.801  0.00  0.00    +0.040 C 
ATOM     20  C   UNL     1       1.476  -8.315  28.045  0.00  0.00    +0.001 C 
BRANCH  17  21
ATOM     21  C   UNL     1       1.718  -4.584  29.932  0.00  0.00    +0.246 C 
ATOM     22  O   UNL     1       2.440  -4.394  30.945  0.00  0.00    -0.270 OA
ATOM     23  N   UNL     1       0.959  -3.512  29.410  0.00  0.00    -0.325 N 
ATOM     24  H   UNL     1       0.391  -3.651  28.618  0.00  0.00    +0.145 HD
ATOM     25  H   UNL     1       0.998  -2.627  29.839  0.00  0.00    +0.145 HD
ENDBRANCH  17  21
BRANCH  18  26
ATOM     26  O   UNL     1      -0.532  -6.086  30.189  0.00  0.00    -0.360 OA
BRANCH  26  27
ATOM     27  N   UNL     1      -1.377  -6.678  31.052  0.00  0.00    -0.017 N 
ATOM     28  N   UNL     1      -2.690  -6.946  30.684  0.00  0.00    -0.144 NA
ATOM     29  C   UNL     1      -3.549  -7.504  31.453  0.00  0.00    +0.095 C 
ATOM     30  C   UNL     1      -3.257  -7.938  32.841  0.00  0.00    +0.059 C 
ATOM     31  C   UNL     1      -2.025  -7.337  33.426  0.00  0.00    +0.097 C 
ATOM     32  C   UNL     1      -0.995  -7.062  32.380  0.00  0.00    +0.281 C 
ATOM     33  O   UNL     1       0.216  -7.153  32.617  0.00  0.00    -0.270 OA
ENDBRANCH  26  27
ENDBRANCH  18  26
ENDBRANCH   2  15
BRANCH   5  34
ATOM     34  N   UNL     1       6.813 -10.427  25.729  0.00  0.00    -0.224 N 
ATOM     35  H   UNL     1       7.524  -9.778  25.521  0.00  0.00    +0.173 HD
BRANCH  34  36
ATOM     36  S   UNL     1       7.125 -12.096  25.441  0.00  0.00    +0.033 S 
ATOM     37  O   UNL     1       6.265 -12.925  26.353  0.00  0.00    -0.158 OA
ATOM     38  O   UNL     1       6.799 -12.488  24.028  0.00  0.00    -0.158 OA
ATOM     39  H   UNL     1       8.449 -12.310  25.668  0.00  0.00    +0.233 HD
ENDBRANCH  34  36
ENDBRANCH   5  34
TORSDOF 7
