REMARK  Name = =
REMARK  8 active torsions:
REMARK  status: ('A' for Active; 'I' for Inactive)
REMARK    1  A    between atoms: C_2  and  C_16
REMARK    2  A    between atoms: C_3  and  N_7
REMARK    3  A    between atoms: C_5  and  N_33
REMARK    4  A    between atoms: C_11  and  S_15
REMARK    5  A    between atoms: C_18  and  C_22
REMARK    6  A    between atoms: C_19  and  O_25
REMARK    7  A    between atoms: O_25  and  N_26
REMARK    8  A    between atoms: N_33  and  S_34
REMARK                            x       y       z     vdW  Elec       q    Type
REMARK                         _______ _______ _______ _____ _____    ______ ____
ROOT
ATOM      1  O   UNL     1       1.937  -3.594  26.947  0.00  0.00    -0.344 OA
ATOM      2  C   UNL     1       2.427  -4.930  26.931  0.00  0.00    +0.157 C 
ATOM      3  C   UNL     1       3.852  -4.793  27.429  0.00  0.00    +0.113 C 
ATOM      4  C   UNL     1       4.486  -3.696  26.661  0.00  0.00    +0.006 C 
ATOM      5  C   UNL     1       3.856  -2.831  25.916  0.00  0.00    +0.069 C 
ATOM      6  C   UNL     1       2.387  -2.919  25.814  0.00  0.00    +0.184 C 
ENDROOT
BRANCH   3   7
ATOM      7  N   UNL     1       4.605  -6.024  27.358  0.00  0.00    -0.264 NA
ATOM      8  C   UNL     1       5.985  -5.667  27.621  0.00  0.00    +0.094 C 
ATOM      9  C   UNL     1       6.956  -6.790  27.484  0.00  0.00    +0.112 C 
ATOM     10  N   UNL     1       6.486  -7.833  26.595  0.00  0.00    -0.262 N 
ATOM     11  C   UNL     1       5.376  -7.686  25.709  0.00  0.00    +0.136 C 
ATOM     12  C   UNL     1       4.391  -6.622  26.084  0.00  0.00    +0.104 C 
ATOM     13  C   UNL     1       7.185  -9.064  26.633  0.00  0.00    +0.304 C 
ATOM     14  O   UNL     1       6.814 -10.015  25.865  0.00  0.00    -0.265 OA
BRANCH  11  15
ATOM     15  S   UNL     1       6.059  -7.330  24.045  0.00  0.00    -0.148 S 
ATOM     16  H   UNL     1       5.038  -7.180  23.159  0.00  0.00    +0.104 HD
ENDBRANCH  11  15
ENDBRANCH   3   7
BRANCH   2  17
ATOM     17  C   UNL     1       1.546  -5.647  27.913  0.00  0.00    +0.007 C 
ATOM     18  C   UNL     1       1.080  -6.918  27.721  0.00  0.00    +0.006 C 
ATOM     19  C   UNL     1       0.285  -7.557  28.683  0.00  0.00    +0.090 C 
ATOM     20  C   UNL     1      -0.033  -6.889  29.852  0.00  0.00    +0.177 C 
ATOM     21  C   UNL     1       0.421  -5.604  30.082  0.00  0.00    +0.040 C 
ATOM     22  C   UNL     1       1.193  -5.017  29.112  0.00  0.00    +0.001 C 
BRANCH  19  23
ATOM     23  C   UNL     1      -0.211  -8.905  28.457  0.00  0.00    +0.246 C 
ATOM     24  O   UNL     1       0.446  -9.692  27.732  0.00  0.00    -0.270 OA
ATOM     25  N   UNL     1      -1.427  -9.316  29.052  0.00  0.00    -0.325 N 
ATOM     26  H   UNL     1      -1.934  -8.691  29.619  0.00  0.00    +0.145 HD
ATOM     27  H   UNL     1      -1.766 -10.227  28.899  0.00  0.00    +0.145 HD
ENDBRANCH  19  23
BRANCH  20  28
ATOM     28  O   UNL     1      -0.814  -7.537  30.789  0.00  0.00    -0.360 OA
BRANCH  28  29
ATOM     29  N   UNL     1      -1.854  -7.017  31.468  0.00  0.00    -0.017 N 
ATOM     30  N   UNL     1      -2.991  -6.405  30.959  0.00  0.00    -0.144 NA
ATOM     31  C   UNL     1      -3.958  -5.912  31.615  0.00  0.00    +0.095 C 
ATOM     32  C   UNL     1      -3.979  -5.934  33.080  0.00  0.00    +0.059 C 
ATOM     33  C   UNL     1      -3.047  -6.922  33.689  0.00  0.00    +0.097 C 
ATOM     34  C   UNL     1      -1.790  -7.085  32.916  0.00  0.00    +0.281 C 
ATOM     35  O   UNL     1      -0.726  -7.276  33.527  0.00  0.00    -0.270 OA
ENDBRANCH  28  29
ENDBRANCH  20  28
ENDBRANCH   2  17
BRANCH   5  36
ATOM     36  N   UNL     1       4.548  -1.813  25.213  0.00  0.00    -0.224 N 
ATOM     37  H   UNL     1       5.419  -1.513  25.561  0.00  0.00    +0.173 HD
BRANCH  36  38
ATOM     38  S   UNL     1       3.941  -1.072  23.777  0.00  0.00    +0.033 S 
ATOM     39  O   UNL     1       4.263  -1.892  22.559  0.00  0.00    -0.158 OA
ATOM     40  O   UNL     1       4.515   0.302  23.571  0.00  0.00    -0.158 OA
ATOM     41  H   UNL     1       2.594  -0.986  23.941  0.00  0.00    +0.233 HD
ENDBRANCH  36  38
ENDBRANCH   5  36
TORSDOF 8
