MODEL 1
REMARK VINA RESULT:    -7.696      0.000      0.000
REMARK INTER + INTRA:         -11.746
REMARK INTER:                 -11.295
REMARK INTRA:                  -0.451
REMARK UNBOUND:                -0.451
REMARK  Name = =
REMARK  10 active torsions:
REMARK  status: ('A' for Active; 'I' for Inactive)
REMARK    1  A    between atoms: P_1  and  O_3
REMARK    2  A    between atoms: P_1  and  O_4
REMARK    3  A    between atoms: P_1  and  O_17
REMARK    4  A    between atoms: O_4  and  C_9
REMARK    5  A    between atoms: C_5  and  C_15
REMARK    6  A    between atoms: C_10  and  O_16
REMARK    7  A    between atoms: O_17  and  N_18
REMARK    8  A    between atoms: N_18  and  C_19
REMARK    9  A    between atoms: C_21  and  O_26
REMARK   10  A    between atoms: C_23  and  O_25
REMARK                            x       y       z     vdW  Elec       q    Type
REMARK                         _______ _______ _______ _____ _____    ______ ____
ROOT
ATOM      1  P   UNL     1      52.043 156.613  28.880  0.00  0.00    +0.330 P 
ATOM      2  S   UNL     1      50.519 156.158  29.536  0.00  0.00    +0.024 S 
ENDROOT
BRANCH   1   3
ATOM      3  O   UNL     1      53.197 155.481  29.416  0.00  0.00    -0.326 OA
ATOM      4  H   UNL     1      52.973 154.602  29.072  0.00  0.00    +0.220 HD
ENDBRANCH   1   3
BRANCH   1   5
ATOM      5  O   UNL     1      52.044 156.639  27.186  0.00  0.00    -0.298 OA
BRANCH   5  10
ATOM      6  C   UNL     1      52.396 155.045  25.465  0.00  0.00    +0.053 C 
ATOM      7  C   UNL     1      52.919 155.764  24.267  0.00  0.00    +0.007 C 
ATOM      8  C   UNL     1      54.094 156.577  24.673  0.00  0.00    +0.003 C 
ATOM      9  C   UNL     1      54.164 156.582  26.165  0.00  0.00    +0.030 C 
ATOM     10  C   UNL     1      52.973 155.763  26.664  0.00  0.00    +0.128 C 
BRANCH   6  16
ATOM     11  C   UNL     1      52.216 152.747  26.408  0.00  0.00    +0.149 C 
ATOM     12  C   UNL     1      52.590 151.413  26.462  0.00  0.00    +0.135 C 
ATOM     13  N   UNL     1      53.509 150.933  25.609  0.00  0.00    -0.239 NA
ATOM     14  C   UNL     1      54.092 151.738  24.679  0.00  0.00    +0.099 C 
ATOM     15  C   UNL     1      53.715 153.078  24.628  0.00  0.00    +0.019 C 
ATOM     16  C   UNL     1      52.776 153.601  25.488  0.00  0.00    +0.017 C 
BRANCH  11  17
ATOM     17  O   UNL     1      51.274 153.179  27.296  0.00  0.00    -0.504 OA
ATOM     18  H   UNL     1      50.942 152.596  27.950  0.00  0.00    +0.292 HD
ENDBRANCH  11  17
ENDBRANCH   6  16
ENDBRANCH   5  10
ENDBRANCH   1   5
BRANCH   1  19
ATOM     19  O   UNL     1      52.548 158.131  29.427  0.00  0.00    -0.169 OA
BRANCH  19  20
ATOM     20  N   UNL     1      51.497 158.728  29.926  0.00  0.00    -0.123 NA
BRANCH  20  21
ATOM     21  C   UNL     1      50.578 159.496  30.614  0.00  0.00    +0.114 C 
ATOM     22  C   UNL     1      49.223 159.282  30.532  0.00  0.00    +0.058 C 
ATOM     23  C   UNL     1      48.332 160.061  31.228  0.00  0.00    +0.138 C 
ATOM     24  C   UNL     1      48.809 161.068  32.018  0.00  0.00    +0.073 C 
ATOM     25  C   UNL     1      50.164 161.312  32.127  0.00  0.00    +0.138 C 
ATOM     26  C   UNL     1      51.017 160.510  31.413  0.00  0.00    +0.058 C 
BRANCH  25  27
ATOM     27  O   UNL     1      50.582 162.340  32.937  0.00  0.00    -0.505 OA
ATOM     28  H   UNL     1      50.029 162.647  33.628  0.00  0.00    +0.292 HD
ENDBRANCH  25  27
BRANCH  23  29
ATOM     29  O   UNL     1      46.989 159.830  31.130  0.00  0.00    -0.505 OA
ATOM     30  H   UNL     1      46.599 159.683  30.291  0.00  0.00    +0.292 HD
ENDBRANCH  23  29
ENDBRANCH  20  21
ENDBRANCH  19  20
ENDBRANCH   1  19
TORSDOF 10
ENDMDL
