REMARK  Name = =
REMARK  10 active torsions:
REMARK  status: ('A' for Active; 'I' for Inactive)
REMARK    1  A    between atoms: P_1  and  O_3
REMARK    2  A    between atoms: P_1  and  O_4
REMARK    3  A    between atoms: P_1  and  O_17
REMARK    4  A    between atoms: O_4  and  C_9
REMARK    5  A    between atoms: C_5  and  C_15
REMARK    6  A    between atoms: C_10  and  O_16
REMARK    7  A    between atoms: O_17  and  N_18
REMARK    8  A    between atoms: N_18  and  C_19
REMARK    9  A    between atoms: C_21  and  O_26
REMARK   10  A    between atoms: C_23  and  O_25
REMARK                            x       y       z     vdW  Elec       q    Type
REMARK                         _______ _______ _______ _____ _____    ______ ____
ROOT
ATOM      1  P   UNL     1      52.011 155.525  28.954  0.00  0.00    +0.330 P 
ATOM      2  S   UNL     1      52.681 153.948  29.109  0.00  0.00    +0.024 S 
ENDROOT
BRANCH   1   3
ATOM      3  O   UNL     1      52.847 156.551  30.026  0.00  0.00    -0.326 OA
ATOM      4  H   UNL     1      52.774 156.204  30.929  0.00  0.00    +0.220 HD
ENDBRANCH   1   3
BRANCH   1   5
ATOM      5  O   UNL     1      52.147 156.142  27.383  0.00  0.00    -0.298 OA
BRANCH   5  10
ATOM      6  C   UNL     1      52.243 154.574  25.605  0.00  0.00    +0.053 C 
ATOM      7  C   UNL     1      52.317 155.332  24.322  0.00  0.00    +0.007 C 
ATOM      8  C   UNL     1      53.432 156.309  24.409  0.00  0.00    +0.003 C 
ATOM      9  C   UNL     1      53.900 156.358  25.826  0.00  0.00    +0.030 C 
ATOM     10  C   UNL     1      53.015 155.392  26.615  0.00  0.00    +0.128 C 
BRANCH   6  16
ATOM     11  C   UNL     1      52.219 152.145  26.156  0.00  0.00    +0.149 C 
ATOM     12  C   UNL     1      52.762 150.871  26.097  0.00  0.00    +0.135 C 
ATOM     13  N   UNL     1      53.883 150.645  25.393  0.00  0.00    -0.239 NA
ATOM     14  C   UNL     1      54.508 151.654  24.726  0.00  0.00    +0.099 C 
ATOM     15  C   UNL     1      53.961 152.933  24.788  0.00  0.00    +0.019 C 
ATOM     16  C   UNL     1      52.813 153.198  25.501  0.00  0.00    +0.017 C 
BRANCH  11  17
ATOM     17  O   UNL     1      51.076 152.316  26.883  0.00  0.00    -0.504 OA
ATOM     18  H   UNL     1      50.686 151.586  27.322  0.00  0.00    +0.292 HD
ENDBRANCH  11  17
ENDBRANCH   6  16
ENDBRANCH   5  10
ENDBRANCH   1   5
BRANCH   1  19
ATOM     19  O   UNL     1      50.379 155.573  29.396  0.00  0.00    -0.169 OA
BRANCH  19  20
ATOM     20  N   UNL     1      50.093 156.818  29.673  0.00  0.00    -0.123 NA
BRANCH  20  21
ATOM     21  C   UNL     1      49.744 158.034  30.228  0.00  0.00    +0.114 C 
ATOM     22  C   UNL     1      49.151 158.143  31.463  0.00  0.00    +0.058 C 
ATOM     23  C   UNL     1      48.816 159.366  31.990  0.00  0.00    +0.138 C 
ATOM     24  C   UNL     1      49.082 160.494  31.267  0.00  0.00    +0.073 C 
ATOM     25  C   UNL     1      49.678 160.424  30.023  0.00  0.00    +0.138 C 
ATOM     26  C   UNL     1      49.994 159.182  29.536  0.00  0.00    +0.058 C 
BRANCH  25  27
ATOM     27  O   UNL     1      49.918 161.594  29.344  0.00  0.00    -0.505 OA
ATOM     28  H   UNL     1      49.680 162.415  29.727  0.00  0.00    +0.292 HD
ENDBRANCH  25  27
BRANCH  23  29
ATOM     29  O   UNL     1      48.227 159.450  33.220  0.00  0.00    -0.505 OA
ATOM     30  H   UNL     1      48.049 158.670  33.708  0.00  0.00    +0.292 HD
ENDBRANCH  23  29
ENDBRANCH  20  21
ENDBRANCH  19  20
ENDBRANCH   1  19
TORSDOF 10
