REMARK  Name = =
REMARK  7 active torsions:
REMARK  status: ('A' for Active; 'I' for Inactive)
REMARK    1  A    between atoms: N_6  and  S_7
REMARK    2  A    between atoms: N_6  and  S_13
REMARK    3  A    between atoms: S_7  and  N_10
REMARK    4  A    between atoms: S_13  and  C_14
REMARK    5  A    between atoms: C_14  and  N_16
REMARK    6  A    between atoms: N_16  and  O_17
REMARK    7  A    between atoms: O_17  and  C_18
REMARK                            x       y       z     vdW  Elec       q    Type
REMARK                         _______ _______ _______ _____ _____    ______ ____
ROOT
ATOM      1  C   UNL     1      51.592 153.863  28.281  0.00  0.00    +0.343 C 
ATOM      2  O   UNL     1      51.953 153.214  29.365  0.00  0.00    -0.399 OA
ATOM      3  C   UNL     1      51.874 151.939  29.214  0.00  0.00    +0.307 C 
ATOM      4  N   UNL     1      51.431 151.726  27.946  0.00  0.00    -0.101 NA
ATOM      5  N   UNL     1      51.261 152.902  27.386  0.00  0.00    -0.090 NA
ATOM      6  N   UNL     1      51.556 155.273  28.091  0.00  0.00    -0.074 N 
ENDROOT
BRANCH   6   7
ATOM      7  S   UNL     1      52.929 156.135  27.522  0.00  0.00    +0.142 S 
ATOM      8  O   UNL     1      53.052 157.386  28.352  0.00  0.00    -0.134 OA
ATOM      9  O   UNL     1      54.178 155.305  27.596  0.00  0.00    -0.134 OA
BRANCH   7  10
ATOM     10  N   UNL     1      52.640 156.617  25.891  0.00  0.00    -0.164 N 
ATOM     11  C   UNL     1      52.898 155.788  24.785  0.00  0.00    +0.320 C 
ATOM     12  O   UNL     1      53.362 154.628  24.990  0.00  0.00    -0.263 OA
ATOM     13  H   UNL     1      52.276 157.517  25.726  0.00  0.00    +0.178 HD
ENDBRANCH   7  10
ENDBRANCH   6   7
BRANCH   6  14
ATOM     14  S   UNL     1      50.092 156.165  28.400  0.00  0.00    +0.033 S 
BRANCH  14  15
ATOM     15  C   UNL     1      49.859 156.630  30.101  0.00  0.00    +0.160 C 
ATOM     16  S   UNL     1      50.510 155.830  31.347  0.00  0.00    -0.024 S 
BRANCH  15  17
ATOM     17  N   UNL     1      49.048 157.770  30.341  0.00  0.00    -0.166 N 
ATOM     18  H   UNL     1      48.466 158.105  29.621  0.00  0.00    +0.194 HD
BRANCH  17  19
ATOM     19  O   UNL     1      49.055 158.422  31.561  0.00  0.00    -0.385 OA
BRANCH  19  20
ATOM     20  C   UNL     1      49.582 159.707  31.674  0.00  0.00    +0.173 C 
ATOM     21  C   UNL     1      50.629 160.080  30.882  0.00  0.00    +0.061 C 
ATOM     22  C   UNL     1      51.147 161.350  30.998  0.00  0.00    +0.102 C 
ATOM     23  N   UNL     1      50.589 162.188  31.901  0.00  0.00    -0.242 NA
ATOM     24  C   UNL     1      49.560 161.840  32.688  0.00  0.00    +0.102 C 
ATOM     25  C   UNL     1      49.018 160.560  32.591  0.00  0.00    +0.061 C 
ENDBRANCH  19  20
ENDBRANCH  17  19
ENDBRANCH  15  17
ENDBRANCH  14  15
ENDBRANCH   6  14
TORSDOF 7
