MODEL 1
REMARK VINA RESULT:   -11.814      0.000      0.000
REMARK INTER + INTRA:         -15.847
REMARK INTER:                 -14.231
REMARK INTRA:                  -1.616
REMARK UNBOUND:                -1.616
REMARK  Name = =
REMARK  4 active torsions:
REMARK  status: ('A' for Active; 'I' for Inactive)
REMARK    1  A    between atoms: N_1  and  C_36
REMARK    2  A    between atoms: C_2  and  C_7
REMARK    3  A    between atoms: N_4  and  N_25
REMARK    4  A    between atoms: C_19  and  O_24
REMARK                            x       y       z     vdW  Elec       q    Type
REMARK                         _______ _______ _______ _____ _____    ______ ____
ROOT
ATOM      1  N   UNL     1     -21.959 -40.557  21.221  0.00  0.00    -0.304 N 
ATOM      2  C   UNL     1     -21.049 -39.599  21.753  0.00  0.00    +0.094 C 
ATOM      3  C   UNL     1     -21.024 -38.274  21.036  0.00  0.00    +0.129 C 
ATOM      4  N   UNL     1     -21.902 -38.230  19.908  0.00  0.00    -0.240 N 
ATOM      5  C   UNL     1     -21.985 -39.371  19.046  0.00  0.00    +0.131 C 
ATOM      6  C   UNL     1     -22.371 -40.575  19.823  0.00  0.00    +0.114 C 
ENDROOT
BRANCH   2   7
ATOM      7  C   UNL     1     -19.667 -40.192  21.898  0.00  0.00    +0.020 C 
ATOM      8  C   UNL     1     -19.226 -40.266  23.338  0.00  0.00    +0.002 C 
ATOM      9  C   UNL     1     -19.812 -41.505  24.028  0.00  0.00    +0.000 C 
ATOM     10  C   UNL     1     -18.918 -41.840  25.224  0.00  0.00    +0.004 C 
ATOM     11  C   UNL     1     -17.723 -42.580  24.661  0.00  0.00    +0.022 C 
ATOM     12  C   UNL     1     -17.458 -42.034  23.284  0.00  0.00    +0.004 C 
ATOM     13  C   UNL     1     -16.101 -42.370  22.754  0.00  0.00    +0.005 C 
ATOM     14  C   UNL     1     -15.274 -43.261  23.611  0.00  0.00    +0.026 C 
ATOM     15  C   UNL     1     -15.335 -42.818  25.028  0.00  0.00    -0.023 C 
ATOM     16  C   UNL     1     -16.562 -42.478  25.555  0.00  0.00    -0.026 C 
ATOM     17  C   UNL     1     -16.715 -42.056  26.857  0.00  0.00    -0.001 C 
ATOM     18  C   UNL     1     -15.556 -41.989  27.628  0.00  0.00    +0.036 C 
ATOM     19  C   UNL     1     -14.321 -42.326  27.118  0.00  0.00    +0.133 C 
ATOM     20  C   UNL     1     -14.191 -42.751  25.795  0.00  0.00    +0.032 C 
ATOM     21  C   UNL     1     -17.742 -40.534  23.198  0.00  0.00    +0.000 C 
ATOM     22  C   UNL     1     -17.343 -40.096  21.799  0.00  0.00    +0.000 C 
ATOM     23  C   UNL     1     -18.583 -39.349  21.277  0.00  0.00    +0.002 C 
BRANCH  19  24
ATOM     24  O   UNL     1     -13.177 -42.252  27.907  0.00  0.00    -0.506 OA
ATOM     25  H   UNL     1     -12.339 -42.448  27.537  0.00  0.00    +0.292 HD
ENDBRANCH  19  24
ENDBRANCH   2   7
BRANCH   4  26
ATOM     26  N   UNL     1     -22.661 -37.105  19.651  0.00  0.00    -0.194 N 
ATOM     27  C   UNL     1     -22.280 -36.095  18.865  0.00  0.00    +0.215 A 
ATOM     28  N   UNL     1     -23.072 -35.045  18.667  0.00  0.00    -0.197 NA
ATOM     29  C   UNL     1     -24.299 -34.929  19.241  0.00  0.00    +0.159 A 
ATOM     30  C   UNL     1     -24.701 -35.960  20.051  0.00  0.00    +0.172 A 
ATOM     31  C   UNL     1     -23.875 -37.047  20.250  0.00  0.00    +0.300 A 
ATOM     32  O   UNL     1     -24.296 -37.966  21.004  0.00  0.00    -0.264 OA
ATOM     33  N   UNL     1     -25.930 -35.621  20.494  0.00  0.00    -0.220 NA
ATOM     34  C   UNL     1     -26.289 -34.428  19.988  0.00  0.00    +0.165 C 
ATOM     35  N   UNL     1     -25.269 -34.007  19.211  0.00  0.00    -0.280 N 
ATOM     36  N   UNL     1     -21.009 -36.163  18.242  0.00  0.00    -0.327 N 
ATOM     37  H   UNL     1     -25.244 -33.163  18.706  0.00  0.00    +0.155 HD
ATOM     38  H   UNL     1     -20.428 -36.944  18.393  0.00  0.00    +0.145 HD
ATOM     39  H   UNL     1     -20.707 -35.430  17.659  0.00  0.00    +0.145 HD
ENDBRANCH   4  26
BRANCH   1  40
ATOM     40  C   UNL     1     -22.533 -41.577  22.049  0.00  0.00    +0.069 C 
ATOM     41  C   UNL     1     -22.263 -42.926  21.850  0.00  0.00    +0.038 C 
ATOM     42  C   UNL     1     -22.801 -43.923  22.630  0.00  0.00    +0.118 C 
ATOM     43  C   UNL     1     -23.651 -43.599  23.664  0.00  0.00    +0.180 C 
ATOM     44  N   UNL     1     -23.919 -42.301  23.862  0.00  0.00    -0.222 NA
ATOM     45  C   UNL     1     -23.385 -41.310  23.092  0.00  0.00    +0.115 C 
ATOM     46  N   UNL     1     -24.197 -44.548  24.446  0.00  0.00    -0.222 NA
ATOM     47  C   UNL     1     -23.907 -45.845  24.217  0.00  0.00    +0.121 C 
ATOM     48  C   UNL     1     -23.050 -46.189  23.177  0.00  0.00    +0.120 C 
ATOM     49  N   UNL     1     -22.508 -45.233  22.397  0.00  0.00    -0.239 NA
ENDBRANCH   1  40
TORSDOF 4
ENDMDL
