REMARK  Name = =
REMARK  1 active torsions:
REMARK  status: ('A' for Active; 'I' for Inactive)
REMARK    1  A    between atoms: C_17  and  O_24
REMARK                            x       y       z     vdW  Elec       q    Type
REMARK                         _______ _______ _______ _____ _____    ______ ____
ROOT
ATOM      1  N   UNL     1      56.182 152.811  30.374  0.00  0.00    -0.251 NA
ATOM      2  C   UNL     1      54.949 152.709  30.123  0.00  0.00    +0.127 C 
ATOM      3  C   UNL     1      54.511 151.338  30.440  0.00  0.00    +0.031 C 
ATOM      4  C   UNL     1      55.737 150.677  30.922  0.00  0.00    +0.003 C 
ATOM      5  C   UNL     1      56.697 151.582  30.866  0.00  0.00    +0.153 C 
ATOM      6  N   UNL     1      54.113 153.713  29.625  0.00  0.00    -0.294 N 
ATOM      7  C   UNL     1      53.077 153.212  28.729  0.00  0.00    +0.083 C 
ATOM      8  C   UNL     1      51.989 154.194  28.751  0.00  0.00    +0.047 C 
ATOM      9  C   UNL     1      52.532 155.517  28.303  0.00  0.00    +0.066 C 
ATOM     10  C   UNL     1      51.534 156.654  28.261  0.00  0.00    +0.174 C 
ATOM     11  O   UNL     1      51.785 157.288  27.012  0.00  0.00    -0.476 OA
ATOM     12  C   UNL     1      52.318 156.316  26.122  0.00  0.00    +0.168 C 
ATOM     13  C   UNL     1      52.736 155.261  26.847  0.00  0.00    +0.014 C 
ATOM     14  C   UNL     1      53.297 154.103  26.420  0.00  0.00    -0.021 C 
ATOM     15  C   UNL     1      53.454 154.025  25.036  0.00  0.00    -0.001 C 
ATOM     16  C   UNL     1      53.057 155.062  24.202  0.00  0.00    +0.039 C 
ATOM     17  C   UNL     1      52.484 156.215  24.750  0.00  0.00    +0.167 C 
ATOM     18  C   UNL     1      53.649 152.991  27.340  0.00  0.00    +0.046 C 
ATOM     19  C   UNL     1      50.169 156.090  28.437  0.00  0.00    +0.070 C 
ATOM     20  C   UNL     1      50.125 155.286  29.716  0.00  0.00    -0.027 C 
ATOM     21  C   UNL     1      51.076 154.327  29.834  0.00  0.00    -0.029 C 
ATOM     22  C   UNL     1      53.810 155.955  28.907  0.00  0.00    +0.029 C 
ATOM     23  C   UNL     1      54.802 154.832  29.039  0.00  0.00    +0.093 C 
ENDROOT
BRANCH  17  24
ATOM     24  O   UNL     1      52.078 157.265  23.943  0.00  0.00    -0.503 OA
ATOM     25  H   UNL     1      52.184 157.210  23.014  0.00  0.00    +0.292 HD
ENDBRANCH  17  24
TORSDOF 1
