REMARK  Name = =
REMARK  2 active torsions:
REMARK  status: ('A' for Active; 'I' for Inactive)
REMARK    1  A    between atoms: C_12  and  O_29
REMARK    2  A    between atoms: O_25  and  O_27
REMARK                            x       y       z     vdW  Elec       q    Type
REMARK                         _______ _______ _______ _____ _____    ______ ____
ROOT
ATOM      1  N   UNL     1      54.179 152.619  25.817  0.00  0.00    -0.294 N 
ATOM      2  C   UNL     1      52.914 153.194  26.234  0.00  0.00    +0.083 C 
ATOM      3  C   UNL     1      53.277 154.442  26.988  0.00  0.00    +0.047 C 
ATOM      4  C   UNL     1      53.873 155.405  26.027  0.00  0.00    +0.066 C 
ATOM      5  C   UNL     1      54.141 156.784  26.529  0.00  0.00    +0.174 C 
ATOM      6  O   UNL     1      53.915 157.572  25.337  0.00  0.00    -0.476 OA
ATOM      7  C   UNL     1      52.883 156.984  24.616  0.00  0.00    +0.168 C 
ATOM      8  C   UNL     1      52.821 155.676  25.007  0.00  0.00    +0.014 C 
ATOM      9  C   UNL     1      51.949 154.747  24.548  0.00  0.00    -0.021 C 
ATOM     10  C   UNL     1      51.044 155.164  23.597  0.00  0.00    -0.001 C 
ATOM     11  C   UNL     1      51.036 156.479  23.140  0.00  0.00    +0.039 C 
ATOM     12  C   UNL     1      51.966 157.382  23.661  0.00  0.00    +0.167 C 
ATOM     13  C   UNL     1      52.001 153.375  25.073  0.00  0.00    +0.046 C 
ATOM     14  C   UNL     1      53.311 157.241  27.663  0.00  0.00    +0.070 C 
ATOM     15  C   UNL     1      52.286 156.289  28.147  0.00  0.00    -0.027 C 
ATOM     16  C   UNL     1      52.253 155.001  27.849  0.00  0.00    -0.029 C 
ATOM     17  C   UNL     1      55.069 154.808  25.366  0.00  0.00    +0.029 C 
ATOM     18  C   UNL     1      54.844 153.424  24.831  0.00  0.00    +0.093 C 
ATOM     19  N   UNL     1      54.583 152.489  28.182  0.00  0.00    -0.251 NA
ATOM     20  C   UNL     1      54.962 152.390  26.953  0.00  0.00    +0.127 C 
ATOM     21  C   UNL     1      56.373 151.994  26.956  0.00  0.00    +0.031 C 
ATOM     22  C   UNL     1      56.713 151.889  28.385  0.00  0.00    +0.003 C 
ATOM     23  C   UNL     1      55.637 152.188  29.077  0.00  0.00    +0.153 C 
ENDROOT
BRANCH  12  24
ATOM     24  O   UNL     1      51.977 158.684  23.225  0.00  0.00    -0.503 OA
ATOM     25  H   UNL     1      51.361 158.967  22.578  0.00  0.00    +0.292 HD
ENDBRANCH  12  24
TORSDOF 1
REMARK  Name = =
REMARK  2 active torsions:
REMARK  status: ('A' for Active; 'I' for Inactive)
REMARK    1  A    between atoms: C_12  and  O_29
REMARK    2  A    between atoms: O_25  and  O_27
REMARK                            x       y       z     vdW  Elec       q    Type
REMARK                         _______ _______ _______ _____ _____    ______ ____
ROOT
ATOM      1  P   UNL     1      53.737 151.044  25.272  0.00  0.00    +0.000 P 
ENDROOT
TORSDOF 0
REMARK  Name = =
REMARK  2 active torsions:
REMARK  status: ('A' for Active; 'I' for Inactive)
REMARK    1  A    between atoms: C_12  and  O_29
REMARK    2  A    between atoms: O_25  and  O_27
REMARK                            x       y       z     vdW  Elec       q    Type
REMARK                         _______ _______ _______ _____ _____    ______ ____
ROOT
ATOM      1  O   UNL     1      53.920 149.596  25.387  0.00  0.00    -0.253 OA
ATOM      2  H   UNL     1      53.194 150.235  25.461  0.00  0.00    +0.253 HD
ENDROOT
BRANCH   1   3
ATOM      3  O   UNL     1      55.176 150.311  24.986  0.00  0.00    -0.253 OA
ATOM      4  H   UNL     1      55.902 149.672  24.912  0.00  0.00    +0.253 HD
ENDBRANCH   1   3
TORSDOF 1
REMARK  Name = =
REMARK  2 active torsions:
REMARK  status: ('A' for Active; 'I' for Inactive)
REMARK    1  A    between atoms: C_12  and  O_29
REMARK    2  A    between atoms: O_25  and  O_27
REMARK                            x       y       z     vdW  Elec       q    Type
REMARK                         _______ _______ _______ _____ _____    ______ ____
ROOT
ATOM      1  N   UNL     1      52.596 150.539  26.388  0.00  0.00    -0.273 NA
ATOM      2  H   UNL     1      53.616 150.539  26.388  0.00  0.00    +0.137 HD
ATOM      3  H   UNL     1      52.256 151.468  26.636  0.00  0.00    +0.137 HD
ENDROOT
TORSDOF 0
REMARK  Name = =
REMARK  2 active torsions:
REMARK  status: ('A' for Active; 'I' for Inactive)
REMARK    1  A    between atoms: C_12  and  O_29
REMARK    2  A    between atoms: O_25  and  O_27
REMARK                            x       y       z     vdW  Elec       q    Type
REMARK                         _______ _______ _______ _____ _____    ______ ____
ROOT
ATOM      1  O   HOH     1      53.256 150.349  23.896  0.00  0.00    -0.253 OA
ATOM      2  H   HOH     0      54.226 150.349  23.896  0.00  0.00    +0.253 HD
ENDROOT
TORSDOF 0
