REMARK  Name = =
REMARK  7 active torsions:
REMARK  status: ('A' for Active; 'I' for Inactive)
REMARK    1  A    between atoms: C_8  and  N_30
REMARK    2  A    between atoms: C_9  and  C_12
REMARK    3  A    between atoms: C_15  and  C_23
REMARK    4  A    between atoms: C_16  and  N_19
REMARK    5  A    between atoms: N_19  and  N_20
REMARK    6  A    between atoms: C_23  and  C_24
REMARK    7  A    between atoms: N_33  and  C_34
REMARK                            x       y       z     vdW  Elec       q    Type
REMARK                         _______ _______ _______ _____ _____    ______ ____
ROOT
ATOM      1  N   UNL     1      -0.886  -0.601  22.484  0.00  0.00    -0.248 N 
ATOM      2  C   UNL     1       0.159  -0.898  21.529  0.00  0.00    +0.252 C 
ATOM      3  O   UNL     1       0.107  -0.543  20.369  0.00  0.00    -0.270 OA
ATOM      4  C   UNL     1       1.192  -1.652  22.216  0.00  0.00    +0.056 C 
ATOM      5  C   UNL     1       0.768  -1.790  23.520  0.00  0.00    +0.058 C 
ATOM      6  C   UNL     1       1.530  -2.456  24.445  0.00  0.00    +0.006 C 
ATOM      7  C   UNL     1       2.721  -2.989  24.069  0.00  0.00    +0.015 C 
ATOM      8  C   UNL     1       3.234  -2.892  22.755  0.00  0.00    +0.048 C 
ATOM      9  C   UNL     1       2.445  -2.211  21.820  0.00  0.00    +0.003 C 
ATOM     10  C   UNL     1      -0.536  -1.141  23.729  0.00  0.00    +0.252 C 
ATOM     11  O   UNL     1      -1.206  -1.084  24.814  0.00  0.00    -0.270 OA
ATOM     12  H   UNL     1      -1.711  -0.100  22.290  0.00  0.00    +0.158 HD
ENDROOT
BRANCH   9  13
ATOM     13  C   UNL     1       2.979  -1.955  20.508  0.00  0.00    +0.083 C 
ATOM     14  C   UNL     1       3.735  -3.198  19.959  0.00  0.00    +0.012 C 
ATOM     15  C   UNL     1       3.543  -3.253  18.412  0.00  0.00    +0.003 C 
ATOM     16  C   UNL     1       2.059  -3.661  18.240  0.00  0.00    +0.027 C 
ATOM     17  C   UNL     1       1.307  -2.392  18.591  0.00  0.00    +0.129 C 
ATOM     18  C   UNL     1       2.266  -1.486  19.343  0.00  0.00    +0.170 C 
ATOM     19  O   UNL     1       2.413  -0.365  18.914  0.00  0.00    -0.294 OA
BRANCH  17  20
ATOM     20  N   UNL     1       0.945  -1.757  17.354  0.00  0.00    -0.224 NA
ATOM     21  H   UNL     1       0.586  -2.476  16.725  0.00  0.00    +0.145 HD
BRANCH  20  22
ATOM     22  N   UNL     1      -0.013  -0.759  17.453  0.00  0.00    -0.242 N 
ATOM     23  C   UNL     1       0.097   0.474  16.753  0.00  0.00    +0.314 C 
ATOM     24  O   UNL     1       1.093   0.676  16.014  0.00  0.00    -0.264 OA
ATOM     25  H   UNL     1      -0.797  -0.910  18.029  0.00  0.00    +0.169 HD
ENDBRANCH  20  22
ENDBRANCH  17  20
BRANCH  16  26
ATOM     26  C   UNL     1       1.923  -4.217  16.895  0.00  0.00    +0.028 C 
BRANCH  26  27
ATOM     27  C   UNL     1       0.767  -5.015  16.546  0.00  0.00    -0.022 C 
ATOM     28  C   UNL     1      -0.356  -4.529  15.952  0.00  0.00    -0.004 C 
ATOM     29  C   UNL     1      -1.458  -5.328  15.653  0.00  0.00    -0.000 C 
ATOM     30  C   UNL     1      -1.445  -6.651  15.954  0.00  0.00    -0.000 C 
ATOM     31  C   UNL     1      -0.327  -7.188  16.557  0.00  0.00    -0.000 C 
ATOM     32  C   UNL     1       0.753  -6.388  16.846  0.00  0.00    -0.004 C 
ENDBRANCH  26  27
ENDBRANCH  16  26
ENDBRANCH   9  13
BRANCH   8  33
ATOM     33  N   UNL     1       4.448  -3.564  22.588  0.00  0.00    -0.268 N 
ATOM     34  C   UNL     1       4.839  -4.563  23.611  0.00  0.00    +0.308 C 
ATOM     35  O   UNL     1       4.131  -4.789  24.598  0.00  0.00    -0.252 OA
ATOM     36  N   UNL     1       6.037  -5.280  23.471  0.00  0.00    -0.268 N 
ATOM     37  H   UNL     1       5.027  -3.379  21.813  0.00  0.00    +0.156 HD
ATOM     38  H   UNL     1       6.571  -5.074  22.670  0.00  0.00    +0.156 HD
BRANCH  36  39
ATOM     39  C   UNL     1       6.572  -6.257  24.333  0.00  0.00    +0.052 C 
ATOM     40  C   UNL     1       7.780  -6.867  23.987  0.00  0.00    +0.015 C 
ATOM     41  C   UNL     1       8.401  -7.826  24.749  0.00  0.00    +0.001 C 
ATOM     42  C   UNL     1       7.837  -8.240  25.931  0.00  0.00    +0.000 C 
ATOM     43  C   UNL     1       6.650  -7.669  26.311  0.00  0.00    +0.001 C 
ATOM     44  C   UNL     1       6.029  -6.688  25.517  0.00  0.00    +0.015 C 
ENDBRANCH  36  39
ENDBRANCH   8  33
TORSDOF 7
