MODEL 1
REMARK VINA RESULT:    -9.525      0.000      0.000
REMARK INTER + INTRA:         -16.844
REMARK INTER:                 -14.259
REMARK INTRA:                  -2.585
REMARK UNBOUND:                -2.585
REMARK  Name = 
REMARK  10 active torsions:
REMARK  status: ('A' for Active; 'I' for Inactive)
REMARK    1  A    between atoms: C_3  and  C_10
REMARK    2  A    between atoms: C_4  and  C_8
REMARK    3  A    between atoms: C_5  and  N_7
REMARK    4  A    between atoms: C_17  and  C_26
REMARK    5  A    between atoms: N_19  and  C_20
REMARK    6  A    between atoms: C_26  and  N_27
REMARK    7  A    between atoms: N_27  and  C_28
REMARK    8  A    between atoms: N_27  and  C_36
REMARK    9  A    between atoms: C_29  and  O_30
REMARK   10  A    between atoms: O_30  and  C_31
REMARK                            x       y       z     vdW  Elec       q    Type
REMARK                         _______ _______ _______ _____ _____    ______ ____
ROOT
ATOM      1  C   UNL     1      15.852 -43.162   8.440  0.00  0.00    +0.000 A 
ATOM      2  C   UNL     1      15.471 -41.910   8.571  0.00  0.00    +0.000 A 
ATOM      3  C   UNL     1      14.113 -41.366   8.907  0.00  0.00    +0.000 C 
ATOM      4  C   UNL     1      13.031 -42.522   8.814  0.00  0.00    +0.000 C 
ATOM      5  C   UNL     1      13.580 -43.529   8.650  0.00  0.00    +0.000 C 
ATOM      6  O   UNL     1      14.781 -44.204   8.474  0.00  0.00    +0.000 OA
ATOM      7  C   UNL     1      16.736 -41.265   8.317  0.00  0.00    +0.000 A 
ATOM      8  N   UNL     1      17.664 -42.274   8.109  0.00  0.00    +0.000 NA
ATOM      9  N   UNL     1      17.103 -43.457   8.181  0.00  0.00    +0.000 N 
ENDROOT
BRANCH   3  10
ATOM     10  C   UNL     1      13.957 -40.541  10.053  0.00  0.00    +0.000 A 
ATOM     11  C   UNL     1      13.177 -39.355   9.906  0.00  0.00    +0.000 A 
ATOM     12  C   UNL     1      13.018 -38.391  10.818  0.00  0.00    +0.000 A 
ATOM     13  C   UNL     1      13.686 -38.542  12.049  0.00  0.00    +0.000 A 
ATOM     14  C   UNL     1      14.430 -39.606  12.228  0.00  0.00    +0.000 A 
ATOM     15  C   UNL     1      14.634 -40.646  11.307  0.00  0.00    +0.000 A 
ATOM     16 CL   UNL     1      13.452 -37.243  13.240  0.00  0.00    +0.000 Cl
ENDBRANCH   3  10
BRANCH   9  17
ATOM     17  C   UNL     1      17.520 -44.808   7.961  0.00  0.00    +0.000 A 
ATOM     18  C   UNL     1      18.657 -45.000   7.175  0.00  0.00    +0.000 A 
ATOM     19  C   UNL     1      19.311 -46.303   7.123  0.00  0.00    +0.000 A 
ATOM     20  C   UNL     1      18.799 -47.294   7.859  0.00  0.00    +0.000 A 
ATOM     21  C   UNL     1      17.639 -47.157   8.659  0.00  0.00    +0.000 A 
ATOM     22  C   UNL     1      17.096 -45.923   8.636  0.00  0.00    +0.000 A 
ENDBRANCH   9  17
BRANCH   5  23
ATOM     23  N   UNL     1      12.493 -44.734   8.443  0.00  0.00    +0.000 N 
ATOM     24  H   UNL     1      12.495 -45.269   9.310  0.00  0.00    +0.000 HD
ATOM     25  H   UNL     1      12.094 -44.732   7.553  0.00  0.00    +0.000 HD
ENDBRANCH   5  23
BRANCH   4  26
ATOM     26  C   UNL     1      11.734 -42.380   8.991  0.00  0.00    +0.000 C 
ATOM     27  N   UNL     1      10.402 -42.243   9.180  0.00  0.00    +0.000 NA
ENDBRANCH   4  26
BRANCH   7  28
ATOM     28  C   UNL     1      16.927 -39.841   8.009  0.00  0.00    +0.000 C 
BRANCH  28  29
ATOM     29  N   UNL     1      18.109 -39.306   8.656  0.00  0.00    +0.000 NA
BRANCH  29  30
ATOM     30  C   UNL     1      19.207 -39.487   7.824  0.00  0.00    +0.000 C 
ATOM     31  C   UNL     1      20.573 -39.830   8.389  0.00  0.00    +0.000 C 
ATOM     32  C   UNL     1      21.559 -38.671   8.383  0.00  0.00    +0.000 C 
ATOM     33  C   UNL     1      21.791 -38.269   6.933  0.00  0.00    +0.000 C 
ATOM     34  C   UNL     1      20.781 -38.922   6.031  0.00  0.00    +0.000 C 
ATOM     35  C   UNL     1      19.378 -38.630   6.611  0.00  0.00    +0.000 C 
BRANCH  31  36
ATOM     36  O   UNL     1      20.574 -40.476   9.598  0.00  0.00    +0.000 OA
ATOM     37  C   UNL     1      21.832 -41.006   9.917  0.00  0.00    +0.000 C 
ENDBRANCH  31  36
ENDBRANCH  29  30
BRANCH  29  38
ATOM     38  C   UNL     1      17.915 -38.340   9.554  0.00  0.00    +0.000 C 
ATOM     39  C   UNL     1      18.701 -37.034   9.551  0.00  0.00    +0.000 C 
ATOM     40  C   UNL     1      18.115 -36.418  10.843  0.00  0.00    +0.000 C 
ATOM     41  C   UNL     1      16.710 -36.998  10.953  0.00  0.00    +0.000 C 
ATOM     42  C   UNL     1      16.505 -37.746   9.665  0.00  0.00    +0.000 C 
ENDBRANCH  29  38
ENDBRANCH  28  29
ENDBRANCH   7  28
TORSDOF 9
ENDMDL
