MODEL 1
REMARK VINA RESULT:    -9.029      0.000      0.000
REMARK INTER + INTRA:         -20.677
REMARK INTER:                 -17.210
REMARK INTRA:                  -3.467
REMARK UNBOUND:                -3.467
REMARK  Name = 
REMARK  19 active torsions:
REMARK  status: ('A' for Active; 'I' for Inactive)
REMARK    1  A    between atoms: N_1  and  C_2
REMARK    2  A    between atoms: C_2  and  C_3
REMARK    3  A    between atoms: C_3  and  O_5
REMARK    4  A    between atoms: N_8  and  C_11
REMARK    5  A    between atoms: C_11  and  N_12
REMARK    6  A    between atoms: N_12  and  C_13
REMARK    7  A    between atoms: N_12  and  C_22
REMARK    8  A    between atoms: C_13  and  C_14
REMARK    9  A    between atoms: C_17  and  O_20
REMARK   10  A    between atoms: O_20  and  C_21
REMARK   11  A    between atoms: C_22  and  C_23
REMARK   12  A    between atoms: C_26  and  O_29
REMARK   13  A    between atoms: O_29  and  C_30
REMARK   14  A    between atoms: C_30  and  C_31
REMARK   15  A    between atoms: C_32  and  N_33
REMARK   16  A    between atoms: N_33  and  N_34
REMARK   17  A    between atoms: C_35  and  C_37
REMARK   18  A    between atoms: C_45  and  C_49
REMARK   19  A    between atoms: C_45  and  C_50
REMARK                            x       y       z     vdW  Elec       q    Type
REMARK                         _______ _______ _______ _____ _____    ______ ____
ROOT
ATOM      1  C   UNL     1      18.445 -40.968   9.320  0.00  0.00    +0.000 A 
ATOM      2  C   UNL     1      17.324 -41.687   8.991  0.00  0.00    +0.000 A 
ATOM      3  C   UNL     1      17.371 -42.952   8.483  0.00  0.00    +0.000 A 
ATOM      4  C   UNL     1      18.576 -43.589   8.272  0.00  0.00    +0.000 A 
ATOM      5  C   UNL     1      19.731 -42.863   8.608  0.00  0.00    +0.000 A 
ATOM      6  C   UNL     1      19.647 -41.593   9.115  0.00  0.00    +0.000 A 
ENDROOT
BRANCH   1   7
ATOM      7  C   UNL     1      18.335 -39.611   9.853  0.00  0.00    +0.000 C 
BRANCH   7   8
ATOM      8  N   UNL     1      18.330 -38.542   8.883  0.00  0.00    +0.000 NA
BRANCH   8   9
ATOM      9  C   UNL     1      19.575 -37.793   8.887  0.00  0.00    +0.000 C 
BRANCH   9  10
ATOM     10  C   UNL     1      20.523 -38.410   7.956  0.00  0.00    +0.000 A 
ATOM     11  C   UNL     1      21.836 -38.599   8.320  0.00  0.00    +0.000 A 
ATOM     12  C   UNL     1      22.752 -39.188   7.448  0.00  0.00    +0.000 A 
ATOM     13  C   UNL     1      22.339 -39.591   6.189  0.00  0.00    +0.000 A 
ATOM     14  C   UNL     1      21.036 -39.405   5.820  0.00  0.00    +0.000 A 
ATOM     15  C   UNL     1      20.137 -38.816   6.707  0.00  0.00    +0.000 A 
BRANCH  13  16
ATOM     16  O   UNL     1      23.237 -40.184   5.299  0.00  0.00    +0.000 OA
ATOM     17  C   UNL     1      22.764 -41.099   4.358  0.00  0.00    +0.000 C 
ENDBRANCH  13  16
ENDBRANCH   9  10
ENDBRANCH   8   9
BRANCH   8  18
ATOM     18  C   UNL     1      17.300 -37.555   9.178  0.00  0.00    +0.000 C 
BRANCH  18  22
ATOM     19  N   UNL     1      15.070 -35.542  11.645  0.00  0.00    +0.000 NA
ATOM     20  C   UNL     1      16.017 -35.212  10.575  0.00  0.00    +0.000 C 
ATOM     21  C   UNL     1      17.274 -35.992  10.895  0.00  0.00    +0.000 C 
ATOM     22  N   UNL     1      17.015 -37.400  10.569  0.00  0.00    +0.000 NA
ATOM     23  C   UNL     1      15.660 -37.790  10.802  0.00  0.00    +0.000 C 
ATOM     24  C   UNL     1      14.902 -36.957  11.780  0.00  0.00    +0.000 C 
BRANCH  19  25
ATOM     25  C   UNL     1      13.816 -34.847  11.419  0.00  0.00    +0.000 C 
BRANCH  25  26
ATOM     26  C   UNL     1      14.075 -33.410  11.211  0.00  0.00    +0.000 C 
ATOM     27  O   UNL     1      14.867 -32.806  11.968  0.00  0.00    +0.000 OA
BRANCH  26  28
ATOM     28  O   UNL     1      13.466 -32.702  10.197  0.00  0.00    +0.000 OA
ATOM     29  H   UNL     1      12.517 -32.837   9.879  0.00  0.00    +0.000 HD
ENDBRANCH  26  28
ENDBRANCH  25  26
ENDBRANCH  19  25
ENDBRANCH  18  22
ENDBRANCH   8  18
ENDBRANCH   7   8
ENDBRANCH   1   7
BRANCH   4  30
ATOM     30  O   UNL     1      18.685 -44.809   7.785  0.00  0.00    +0.000 OA
BRANCH  30  31
ATOM     31  C   UNL     1      18.481 -45.709   6.852  0.00  0.00    +0.000 C 
BRANCH  31  32
ATOM     32  C   UNL     1      19.483 -46.708   6.477  0.00  0.00    +0.000 C 
ATOM     33  C   UNL     1      20.656 -46.327   5.996  0.00  0.00    +0.000 C 
ATOM     34  C   UNL     1      21.687 -47.321   5.613  0.00  0.00    +0.000 C 
ATOM     35  C   UNL     1      21.600 -48.647   6.252  0.00  0.00    +0.000 C 
ATOM     36  C   UNL     1      20.380 -48.971   7.036  0.00  0.00    +0.000 C 
ATOM     37  C   UNL     1      19.246 -48.170   6.532  0.00  0.00    +0.000 C 
ATOM     38  O   UNL     1      18.139 -48.621   6.156  0.00  0.00    +0.000 OA
ATOM     39  C   UNL     1      21.765 -49.728   5.185  0.00  0.00    +0.000 C 
ATOM     40  C   UNL     1      22.791 -48.853   7.196  0.00  0.00    +0.000 C 
BRANCH  33  41
ATOM     41  N   UNL     1      20.965 -44.969   5.835  0.00  0.00    +0.000 N 
ATOM     42  H   UNL     1      20.596 -44.348   5.057  0.00  0.00    +0.000 HD
BRANCH  41  43
ATOM     43  N   UNL     1      21.859 -44.409   6.789  0.00  0.00    +0.000 N 
ATOM     44  C   UNL     1      23.211 -44.150   6.570  0.00  0.00    +0.000 C 
ATOM     45  O   UNL     1      23.692 -44.433   5.442  0.00  0.00    +0.000 OA
ATOM     46  H   UNL     1      21.415 -44.194   7.706  0.00  0.00    +0.000 HD
BRANCH  44  47
ATOM     47  C   UNL     1      24.097 -43.562   7.594  0.00  0.00    +0.000 A 
ATOM     48  C   UNL     1      25.348 -44.115   7.766  0.00  0.00    +0.000 A 
ATOM     49  C   UNL     1      26.256 -43.641   8.691  0.00  0.00    +0.000 A 
ATOM     50  C   UNL     1      25.858 -42.562   9.460  0.00  0.00    +0.000 A 
ATOM     51  C   UNL     1      24.603 -41.997   9.297  0.00  0.00    +0.000 A 
ATOM     52  C   UNL     1      23.717 -42.497   8.361  0.00  0.00    +0.000 A 
ATOM     53 CL   UNL     1      26.937 -41.872  10.671  0.00  0.00    +0.000 Cl
ENDBRANCH  44  47
ENDBRANCH  41  43
ENDBRANCH  33  41
ENDBRANCH  31  32
ENDBRANCH  30  31
ENDBRANCH   4  30
TORSDOF 16
ENDMDL
