MODEL 1
REMARK VINA RESULT:    -9.241      0.000      0.000
REMARK INTER + INTRA:         -18.334
REMARK INTER:                 -16.264
REMARK INTRA:                  -2.069
REMARK UNBOUND:                -2.069
REMARK  Name = 
REMARK  17 active torsions:
REMARK  status: ('A' for Active; 'I' for Inactive)
REMARK    1  A    between atoms: C_1  and  C_9
REMARK    2  A    between atoms: C_2  and  C_8
REMARK    3  A    between atoms: N_4  and  C_6
REMARK    4  A    between atoms: C_9  and  N_10
REMARK    5  A    between atoms: C_13  and  C_14
REMARK    6  A    between atoms: C_13  and  C_17
REMARK    7  A    between atoms: C_14  and  O_16
REMARK    8  A    between atoms: C_17  and  C_18
REMARK    9  A    between atoms: C_21  and  C_22
REMARK   10  A    between atoms: C_23  and  C_24
REMARK   11  A    between atoms: C_31  and  N_32
REMARK   12  A    between atoms: N_32  and  C_33
REMARK   13  A    between atoms: N_32  and  C_40
REMARK   14  A    between atoms: C_33  and  C_34
REMARK   15  A    between atoms: C_40  and  C_41
REMARK   16  A    between atoms: C_40  and  C_43
REMARK   17  A    between atoms: C_41  and  O_42
REMARK                            x       y       z     vdW  Elec       q    Type
REMARK                         _______ _______ _______ _____ _____    ______ ____
ROOT
ATOM      1  N   UNL     1      14.222 -40.319  10.009  0.00  0.00    +0.000 NA
ATOM      2  C   UNL     1      14.757 -40.358   8.620  0.00  0.00    +0.000 C 
ATOM      3  C   UNL     1      15.864 -39.496   8.344  0.00  0.00    +0.000 C 
ATOM      4  C   UNL     1      17.014 -39.536   9.221  0.00  0.00    +0.000 C 
ATOM      5  C   UNL     1      16.383 -39.132  10.595  0.00  0.00    +0.000 C 
ATOM      6  C   UNL     1      14.984 -39.618  10.902  0.00  0.00    +0.000 C 
ENDROOT
BRANCH   4   7
ATOM      7  C   UNL     1      17.997 -38.497   8.907  0.00  0.00    +0.000 C 
ATOM      8  O   UNL     1      18.627 -37.862   9.780  0.00  0.00    +0.000 OA
BRANCH   7   9
ATOM      9  O   UNL     1      18.314 -38.157   7.579  0.00  0.00    +0.000 OA
ATOM     10  H   UNL     1      17.660 -37.746   6.918  0.00  0.00    +0.000 HD
ENDBRANCH   7   9
ENDBRANCH   4   7
BRANCH   1  11
ATOM     11  C   UNL     1      13.874 -41.707  10.138  0.00  0.00    +0.000 C 
BRANCH  11  12
ATOM     12  C   UNL     1      12.426 -41.965  10.393  0.00  0.00    +0.000 A 
ATOM     13  C   UNL     1      11.513 -42.770   9.735  0.00  0.00    +0.000 A 
ATOM     14  N   UNL     1      10.435 -42.946  10.504  0.00  0.00    +0.000 NA
ATOM     15  N   UNL     1      10.550 -42.310  11.632  0.00  0.00    +0.000 N 
ATOM     16  C   UNL     1      11.780 -41.689  11.592  0.00  0.00    +0.000 A 
ATOM     17  C   UNL     1      11.663 -43.230   8.328  0.00  0.00    +0.000 C 
BRANCH  15  18
ATOM     18  C   UNL     1       9.634 -42.319  12.735  0.00  0.00    +0.000 C 
ATOM     19  C   UNL     1       9.911 -41.544  13.781  0.00  0.00    +0.000 C 
ENDBRANCH  15  18
ENDBRANCH  11  12
ENDBRANCH   1  11
BRANCH   4  20
ATOM     20  C   UNL     1      17.761 -40.826   9.533  0.00  0.00    +0.000 C 
BRANCH  20  21
ATOM     21  C   UNL     1      19.137 -40.734   9.077  0.00  0.00    +0.000 C 
ATOM     22  O   UNL     1      20.281 -40.830   9.912  0.00  0.00    +0.000 OA
ATOM     23  N   UNL     1      21.286 -40.509   8.881  0.00  0.00    +0.000 NA
ATOM     24  C   UNL     1      20.979 -41.265   7.849  0.00  0.00    +0.000 C 
ATOM     25  C   UNL     1      19.627 -41.913   8.161  0.00  0.00    +0.000 C 
BRANCH  24  26
ATOM     26  C   UNL     1      21.610 -41.383   6.548  0.00  0.00    +0.000 A 
ATOM     27  C   UNL     1      22.080 -40.375   5.763  0.00  0.00    +0.000 A 
ATOM     28  C   UNL     1      21.664 -38.972   6.062  0.00  0.00    +0.000 C 
ATOM     29  C   UNL     1      22.830 -40.600   4.635  0.00  0.00    +0.000 A 
ATOM     30  C   UNL     1      23.165 -41.854   4.210  0.00  0.00    +0.000 A 
ATOM     31  C   UNL     1      22.694 -42.915   4.993  0.00  0.00    +0.000 A 
ATOM     32  C   UNL     1      21.937 -42.670   6.125  0.00  0.00    +0.000 A 
ENDBRANCH  24  26
ENDBRANCH  20  21
ENDBRANCH   4  20
BRANCH   6  33
ATOM     33  N   UNL     1      14.318 -38.262  11.112  0.00  0.00    +0.000 NA
BRANCH  33  34
ATOM     34  C   UNL     1      12.962 -38.263  11.115  0.00  0.00    +0.000 C 
ATOM     35  C   UNL     1      12.254 -37.264  10.225  0.00  0.00    +0.000 C 
BRANCH  34  36
ATOM     36  C   UNL     1      12.328 -38.145  12.482  0.00  0.00    +0.000 C 
BRANCH  36  37
ATOM     37  O   UNL     1      10.999 -37.718  12.428  0.00  0.00    +0.000 OA
ATOM     38  H   UNL     1      10.520 -37.996  11.628  0.00  0.00    +0.000 HD
ENDBRANCH  36  37
ENDBRANCH  34  36
ENDBRANCH  33  34
BRANCH  33  39
ATOM     39  C   UNL     1      15.209 -37.367  11.669  0.00  0.00    +0.000 C 
BRANCH  39  40
ATOM     40  C   UNL     1      15.286 -35.947  11.285  0.00  0.00    +0.000 A 
ATOM     41  C   UNL     1      14.339 -35.036  11.704  0.00  0.00    +0.000 A 
ATOM     42  C   UNL     1      14.429 -33.703  11.371  0.00  0.00    +0.000 A 
ATOM     43  C   UNL     1      15.482 -33.238  10.602  0.00  0.00    +0.000 A 
ATOM     44  C   UNL     1      16.424 -34.137  10.189  0.00  0.00    +0.000 A 
ATOM     45  C   UNL     1      16.314 -35.453  10.532  0.00  0.00    +0.000 A 
ENDBRANCH  39  40
ENDBRANCH  33  39
ENDBRANCH   6  33
TORSDOF 14
ENDMDL
