MODEL 1
REMARK VINA RESULT:    -8.564      0.000      0.000
REMARK INTER + INTRA:         -16.600
REMARK INTER:                 -14.071
REMARK INTRA:                  -2.529
REMARK UNBOUND:                -2.529
REMARK  Name = 
REMARK  14 active torsions:
REMARK  status: ('A' for Active; 'I' for Inactive)
REMARK    1  A    between atoms: C_1  and  C_11
REMARK    2  A    between atoms: C_2  and  O_9
REMARK    3  A    between atoms: O_9  and  C_10
REMARK    4  A    between atoms: C_11  and  N_12
REMARK    5  A    between atoms: N_12  and  C_13
REMARK    6  A    between atoms: C_13  and  C_14
REMARK    7  A    between atoms: C_18  and  N_19
REMARK    8  A    between atoms: N_19  and  C_20
REMARK    9  A    between atoms: N_19  and  C_27
REMARK   10  A    between atoms: C_23  and  C_26
REMARK   11  A    between atoms: C_27  and  C_28
REMARK   12  A    between atoms: C_28  and  C_29
REMARK   13  A    between atoms: C_32  and  O_35
REMARK   14  A    between atoms: O_35  and  C_36
REMARK                            x       y       z     vdW  Elec       q    Type
REMARK                         _______ _______ _______ _____ _____    ______ ____
ROOT
ATOM      1  C   UNL     1      22.254 -39.585   8.017  0.00  0.00    +0.000 A 
ATOM      2  O   UNL     1      23.209 -39.691   7.100  0.00  0.00    +0.000 OA
ATOM      3  C   UNL     1      22.743 -39.658   5.907  0.00  0.00    +0.000 A 
ATOM      4  C   UNL     1      21.383 -39.520   5.999  0.00  0.00    +0.000 A 
ATOM      5  C   UNL     1      21.049 -39.471   7.361  0.00  0.00    +0.000 A 
ENDROOT
BRANCH   1   6
ATOM      6  C   UNL     1      22.442 -39.587   9.493  0.00  0.00    +0.000 C 
BRANCH   6   7
ATOM      7  N   UNL     1      23.550 -40.490   9.785  0.00  0.00    +0.000 NA
ATOM      8  H   UNL     1      24.074 -40.183  10.635  0.00  0.00    +0.000 HD
BRANCH   7   9
ATOM      9  C   UNL     1      23.097 -41.861   9.897  0.00  0.00    +0.000 C 
BRANCH   9  10
ATOM     10  C   UNL     1      23.676 -42.685   8.821  0.00  0.00    +0.000 A 
ATOM     11  C   UNL     1      25.040 -42.992   8.907  0.00  0.00    +0.000 A 
ATOM     12  C   UNL     1      25.582 -43.759   7.911  0.00  0.00    +0.000 A 
ATOM     13  C   UNL     1      24.850 -44.237   6.841  0.00  0.00    +0.000 A 
ATOM     14  C   UNL     1      23.514 -43.915   6.791  0.00  0.00    +0.000 A 
ATOM     15  C   UNL     1      22.901 -43.134   7.778  0.00  0.00    +0.000 A 
ATOM     16 CL   UNL     1      22.559 -44.496   5.464  0.00  0.00    +0.000 Cl
ATOM     17 CL   UNL     1      27.290 -44.140   8.022  0.00  0.00    +0.000 Cl
BRANCH  11  18
ATOM     18  O   UNL     1      25.792 -42.511   9.991  0.00  0.00    +0.000 OA
ATOM     19  C   UNL     1      25.950 -43.418  11.075  0.00  0.00    +0.000 C 
ENDBRANCH  11  18
ENDBRANCH   9  10
ENDBRANCH   7   9
ENDBRANCH   6   7
ENDBRANCH   1   6
BRANCH   5  20
ATOM     20  N   UNL     1      19.750 -39.334   7.911  0.00  0.00    +0.000 N 
BRANCH  20  21
ATOM     21  C   UNL     1      18.977 -40.517   8.075  0.00  0.00    +0.000 A 
ATOM     22  C   UNL     1      17.635 -40.505   7.756  0.00  0.00    +0.000 A 
ATOM     23  C   UNL     1      16.829 -41.622   7.894  0.00  0.00    +0.000 A 
ATOM     24  C   UNL     1      17.379 -42.794   8.364  0.00  0.00    +0.000 A 
ATOM     25  C   UNL     1      18.733 -42.813   8.687  0.00  0.00    +0.000 A 
ATOM     26  C   UNL     1      19.532 -41.682   8.545  0.00  0.00    +0.000 A 
ATOM     27  C   UNL     1      16.561 -44.016   8.528  0.00  0.00    +0.000 C 
ENDBRANCH  20  21
BRANCH  20  28
ATOM     28  C   UNL     1      19.142 -38.094   8.321  0.00  0.00    +0.000 C 
BRANCH  28  29
ATOM     29  C   UNL     1      19.228 -37.906   9.832  0.00  0.00    +0.000 C 
BRANCH  29  30
ATOM     30  C   UNL     1      17.950 -37.477  10.407  0.00  0.00    +0.000 A 
ATOM     31  C   UNL     1      17.736 -36.200  10.897  0.00  0.00    +0.000 A 
ATOM     32  C   UNL     1      16.541 -35.788  11.438  0.00  0.00    +0.000 A 
ATOM     33  C   UNL     1      15.493 -36.673  11.508  0.00  0.00    +0.000 A 
ATOM     34  C   UNL     1      15.652 -37.951  11.037  0.00  0.00    +0.000 A 
ATOM     35  C   UNL     1      16.857 -38.344  10.498  0.00  0.00    +0.000 A 
BRANCH  33  36
ATOM     36  O   UNL     1      14.298 -36.218  12.063  0.00  0.00    +0.000 OA
ATOM     37  C   UNL     1      13.835 -34.901  11.803  0.00  0.00    +0.000 C 
ENDBRANCH  33  36
ENDBRANCH  29  30
ENDBRANCH  28  29
ENDBRANCH  20  28
ENDBRANCH   5  20
TORSDOF 11
ENDMDL
