MODEL 1
REMARK VINA RESULT:    -8.365      0.000      0.000
REMARK INTER + INTRA:         -17.520
REMARK INTER:                 -14.966
REMARK INTRA:                  -2.553
REMARK UNBOUND:                -2.553
REMARK  Name = 
REMARK  18 active torsions:
REMARK  status: ('A' for Active; 'I' for Inactive)
REMARK    1  A    between atoms: C_1  and  C_3
REMARK    2  A    between atoms: N_10  and  C_11
REMARK    3  A    between atoms: C_11  and  C_12
REMARK    4  A    between atoms: C_12  and  C_13
REMARK    5  A    between atoms: C_13  and  C_14
REMARK    6  A    between atoms: C_14  and  C_15
REMARK    7  A    between atoms: C_15  and  C_16
REMARK    8  A    between atoms: C_16  and  O_18
REMARK    9  A    between atoms: O_18  and  C_19
REMARK   10  A    between atoms: C_21  and  C_30
REMARK   11  A    between atoms: C_26  and  C_28
REMARK   12  A    between atoms: C_26  and  C_29
REMARK   13  A    between atoms: N_32  and  C_33
REMARK   14  A    between atoms: C_33  and  C_34
REMARK   15  A    between atoms: C_34  and  C_35
REMARK   16  A    between atoms: C_35  and  O_37
REMARK   17  A    between atoms: C_39  and  C_41
REMARK   18  A    between atoms: C_39  and  C_42
REMARK                            x       y       z     vdW  Elec       q    Type
REMARK                         _______ _______ _______ _____ _____    ______ ____
ROOT
ATOM      1  C   UNL     1      22.981 -43.633   6.756  0.00  0.00    +0.000 C 
ATOM      2  C   UNL     1      21.558 -43.332   7.121  0.00  0.00    +0.000 C 
ATOM      3  C   UNL     1      21.445 -42.602   8.439  0.00  0.00    +0.000 C 
ATOM      4  O   UNL     1      22.360 -41.557   8.486  0.00  0.00    +0.000 OA
ATOM      5  C   UNL     1      23.667 -41.966   8.464  0.00  0.00    +0.000 C 
ATOM      6  C   UNL     1      23.886 -43.342   7.930  0.00  0.00    +0.000 C 
ATOM      7  O   UNL     1      23.698 -44.149   9.010  0.00  0.00    +0.000 OA
ATOM      8  C   UNL     1      24.282 -43.440  10.043  0.00  0.00    +0.000 C 
ATOM      9  O   UNL     1      24.089 -42.084   9.788  0.00  0.00    +0.000 OA
ATOM     10  C   UNL     1      23.658 -43.737  11.393  0.00  0.00    +0.000 C 
ATOM     11  C   UNL     1      25.789 -43.647  10.117  0.00  0.00    +0.000 C 
ATOM     12  O   UNL     1      20.933 -44.546   7.250  0.00  0.00    +0.000 OA
ATOM     13  C   UNL     1      21.789 -45.546   6.855  0.00  0.00    +0.000 C 
ATOM     14  O   UNL     1      22.964 -44.985   6.445  0.00  0.00    +0.000 OA
ATOM     15  C   UNL     1      21.094 -46.304   5.719  0.00  0.00    +0.000 C 
ATOM     16  C   UNL     1      21.936 -46.519   8.020  0.00  0.00    +0.000 C 
ENDROOT
BRANCH   3  17
ATOM     17  C   UNL     1      20.076 -42.013   8.515  0.00  0.00    +0.000 C 
ATOM     18  O   UNL     1      19.868 -41.226   9.481  0.00  0.00    +0.000 OA
ATOM     19  N   UNL     1      19.098 -42.331   7.559  0.00  0.00    +0.000 N 
ATOM     20  H   UNL     1      19.394 -43.008   6.794  0.00  0.00    +0.000 HD
BRANCH  19  21
ATOM     21  C   UNL     1      17.788 -41.766   7.631  0.00  0.00    +0.000 C 
BRANCH  21  22
ATOM     22  C   UNL     1      17.073 -42.199   8.900  0.00  0.00    +0.000 C 
BRANCH  22  23
ATOM     23  C   UNL     1      16.537 -43.568   8.711  0.00  0.00    +0.000 C 
ATOM     24  O   UNL     1      15.293 -43.715   8.595  0.00  0.00    +0.000 OA
BRANCH  23  25
ATOM     25  O   UNL     1      17.408 -44.644   8.668  0.00  0.00    +0.000 OA
ATOM     26  H   UNL     1      17.605 -45.157   7.795  0.00  0.00    +0.000 HD
ENDBRANCH  23  25
ENDBRANCH  22  23
ENDBRANCH  21  22
ENDBRANCH  19  21
ENDBRANCH   3  17
BRANCH   1  27
ATOM     27  O   UNL     1      23.480 -42.847   5.692  0.00  0.00    +0.000 OA
BRANCH  27  28
ATOM     28  C   UNL     1      22.695 -42.263   4.712  0.00  0.00    +0.000 C 
ATOM     29  O   UNL     1      22.047 -43.063   4.010  0.00  0.00    +0.000 OA
BRANCH  28  30
ATOM     30  C   UNL     1      22.676 -40.807   4.567  0.00  0.00    +0.000 C 
BRANCH  30  31
ATOM     31  C   UNL     1      21.568 -40.111   5.319  0.00  0.00    +0.000 C 
BRANCH  31  32
ATOM     32  C   UNL     1      22.092 -39.012   6.211  0.00  0.00    +0.000 C 
BRANCH  32  33
ATOM     33  C   UNL     1      21.049 -38.281   6.945  0.00  0.00    +0.000 C 
BRANCH  33  34
ATOM     34  C   UNL     1      19.651 -38.711   6.971  0.00  0.00    +0.000 C 
BRANCH  34  37
ATOM     35  C   UNL     1      18.925 -37.975   9.278  0.00  0.00    +0.000 C 
ATOM     36  O   UNL     1      20.041 -38.127   9.826  0.00  0.00    +0.000 OA
ATOM     37  N   UNL     1      18.725 -38.239   7.916  0.00  0.00    +0.000 N 
ATOM     38  H   UNL     1      17.715 -38.043   7.569  0.00  0.00    +0.000 HD
BRANCH  35  39
ATOM     39  C   UNL     1      17.836 -37.497  10.163  0.00  0.00    +0.000 A 
ATOM     40  C   UNL     1      16.728 -38.317  10.348  0.00  0.00    +0.000 A 
ATOM     41  C   UNL     1      15.664 -37.958  11.150  0.00  0.00    +0.000 A 
ATOM     42 BR   UNL     1      14.147 -39.079  11.400  0.00  0.00    +0.000 Br
ATOM     43  C   UNL     1      15.745 -36.733  11.772  0.00  0.00    +0.000 A 
ATOM     44  C   UNL     1      16.813 -35.903  11.616  0.00  0.00    +0.000 A 
ATOM     45  C   UNL     1      17.888 -36.280  10.798  0.00  0.00    +0.000 A 
ENDBRANCH  35  39
ENDBRANCH  34  37
ENDBRANCH  33  34
ENDBRANCH  32  33
ENDBRANCH  31  32
ENDBRANCH  30  31
ENDBRANCH  28  30
ENDBRANCH  27  28
ENDBRANCH   1  27
TORSDOF 14
ENDMDL
