MODEL 1
REMARK VINA RESULT:    -7.954      0.000      0.000
REMARK INTER + INTRA:         -21.409
REMARK INTER:                 -17.021
REMARK INTRA:                  -4.388
REMARK UNBOUND:                -4.388
REMARK  Name = 
REMARK  21 active torsions:
REMARK  status: ('A' for Active; 'I' for Inactive)
REMARK    1  A    between atoms: N_1  and  C_11
REMARK    2  A    between atoms: C_2  and  C_10
REMARK    3  A    between atoms: C_11  and  C_12
REMARK    4  A    between atoms: C_12  and  O_14
REMARK    5  A    between atoms: O_14  and  C_15
REMARK    6  A    between atoms: C_15  and  C_16
REMARK    7  A    between atoms: C_15  and  C_20
REMARK    8  A    between atoms: C_15  and  C_24
REMARK    9  A    between atoms: C_16  and  C_17
REMARK   10  A    between atoms: C_20  and  C_21
REMARK   11  A    between atoms: C_21  and  O_23
REMARK   12  A    between atoms: C_27  and  O_30
REMARK   13  A    between atoms: O_30  and  C_31
REMARK   14  A    between atoms: C_31  and  C_32
REMARK   15  A    between atoms: C_32  and  C_33
REMARK   16  A    between atoms: C_33  and  C_34
REMARK   17  A    between atoms: C_34  and  C_35
REMARK   18  A    between atoms: C_35  and  C_36
REMARK   19  A    between atoms: C_36  and  N_39
REMARK   20  A    between atoms: N_39  and  C_40
REMARK   21  A    between atoms: C_40  and  C_41
REMARK                            x       y       z     vdW  Elec       q    Type
REMARK                         _______ _______ _______ _____ _____    ______ ____
ROOT
ATOM      1  C   UNL     1      14.559 -42.152   9.634  0.00  0.00    +0.000 C 
ENDROOT
BRANCH   1   2
ATOM      2  C   UNL     1      15.791 -41.476   9.125  0.00  0.00    +0.000 A 
ATOM      3  C   UNL     1      16.969 -41.369   9.766  0.00  0.00    +0.000 A 
ATOM      4  C   UNL     1      18.019 -40.751   9.076  0.00  0.00    +0.000 A 
ATOM      5  C   UNL     1      17.898 -40.258   7.794  0.00  0.00    +0.000 A 
ATOM      6  C   UNL     1      16.647 -40.390   7.169  0.00  0.00    +0.000 A 
ATOM      7  C   UNL     1      15.626 -40.983   7.816  0.00  0.00    +0.000 A 
BRANCH   5   8
ATOM      8  O   UNL     1      18.846 -39.680   7.088  0.00  0.00    +0.000 OA
BRANCH   8   9
ATOM      9  C   UNL     1      19.679 -38.918   6.493  0.00  0.00    +0.000 C 
BRANCH   9  10
ATOM     10  C   UNL     1      20.669 -38.219   7.447  0.00  0.00    +0.000 C 
BRANCH  10  11
ATOM     11  C   UNL     1      22.028 -38.142   6.703  0.00  0.00    +0.000 C 
BRANCH  11  12
ATOM     12  C   UNL     1      22.512 -39.531   6.539  0.00  0.00    +0.000 C 
BRANCH  12  13
ATOM     13  C   UNL     1      23.003 -40.257   7.715  0.00  0.00    +0.000 C 
BRANCH  13  14
ATOM     14  C   UNL     1      22.592 -41.676   7.945  0.00  0.00    +0.000 C 
ATOM     15  C   UNL     1      23.462 -42.745   7.330  0.00  0.00    +0.000 C 
ATOM     16  C   UNL     1      23.248 -42.594   8.826  0.00  0.00    +0.000 C 
BRANCH  14  17
ATOM     17  N   UNL     1      21.196 -41.855   7.513  0.00  0.00    +0.000 NA
ATOM     18  H   UNL     1      20.659 -41.035   7.442  0.00  0.00    +0.000 HD
BRANCH  17  19
ATOM     19  C   UNL     1      21.008 -42.998   6.715  0.00  0.00    +0.000 C 
BRANCH  19  20
ATOM     20  C   UNL     1      20.043 -43.960   7.318  0.00  0.00    +0.000 A 
ATOM     21  C   UNL     1      20.508 -45.121   7.860  0.00  0.00    +0.000 A 
ATOM     22  N   UNL     1      19.677 -46.072   8.343  0.00  0.00    +0.000 NA
ATOM     23  C   UNL     1      18.347 -45.901   8.302  0.00  0.00    +0.000 A 
ATOM     24  C   UNL     1      17.862 -44.743   7.765  0.00  0.00    +0.000 A 
ATOM     25  C   UNL     1      18.685 -43.744   7.260  0.00  0.00    +0.000 A 
ENDBRANCH  19  20
ENDBRANCH  17  19
ENDBRANCH  14  17
ENDBRANCH  13  14
ENDBRANCH  12  13
ENDBRANCH  11  12
ENDBRANCH  10  11
ENDBRANCH   9  10
ENDBRANCH   8   9
ENDBRANCH   5   8
ENDBRANCH   1   2
BRANCH   1  26
ATOM     26  O   UNL     1      13.716 -41.209  10.188  0.00  0.00    +0.000 OA
BRANCH  26  27
ATOM     27  C   UNL     1      13.889 -39.981  10.648  0.00  0.00    +0.000 C 
ATOM     28  O   UNL     1      14.243 -39.791  11.839  0.00  0.00    +0.000 OA
BRANCH  27  29
ATOM     29  C   UNL     1      13.682 -38.731   9.811  0.00  0.00    +0.000 C 
BRANCH  29  30
ATOM     30  N   UNL     1      14.167 -37.651  10.619  0.00  0.00    +0.000 N 
ATOM     31  C   UNL     1      13.508 -36.905  11.490  0.00  0.00    +0.000 A 
ATOM     32  C   UNL     1      14.422 -36.019  12.086  0.00  0.00    +0.000 A 
ATOM     33  C   UNL     1      15.640 -36.279  11.525  0.00  0.00    +0.000 A 
ATOM     34  C   UNL     1      15.486 -37.299  10.606  0.00  0.00    +0.000 A 
ATOM     35  C   UNL     1      16.560 -37.756   9.873  0.00  0.00    +0.000 A 
ATOM     36  C   UNL     1      17.789 -37.199  10.053  0.00  0.00    +0.000 A 
ATOM     37  C   UNL     1      17.943 -36.169  10.979  0.00  0.00    +0.000 A 
ATOM     38  C   UNL     1      16.872 -35.711  11.712  0.00  0.00    +0.000 A 
ATOM     39  C   UNL     1      12.035 -36.929  11.815  0.00  0.00    +0.000 C 
ENDBRANCH  29  30
ENDBRANCH  27  29
ENDBRANCH  26  27
ENDBRANCH   1  26
BRANCH   1  40
ATOM     40  C   UNL     1      14.769 -43.398  10.334  0.00  0.00    +0.000 C 
BRANCH  40  41
ATOM     41  C   UNL     1      14.214 -43.571  11.687  0.00  0.00    +0.000 C 
ATOM     42  O   UNL     1      13.392 -44.453  12.050  0.00  0.00    +0.000 OA
BRANCH  41  43
ATOM     43  O   UNL     1      14.618 -42.667  12.734  0.00  0.00    +0.000 OA
ATOM     44  H   UNL     1      14.720 -41.681  12.558  0.00  0.00    +0.000 HD
ENDBRANCH  41  43
ENDBRANCH  40  41
ENDBRANCH   1  40
BRANCH   1  45
ATOM     45  C   UNL     1      13.833 -42.491   8.267  0.00  0.00    +0.000 C 
BRANCH  45  46
ATOM     46  C   UNL     1      13.270 -43.826   8.229  0.00  0.00    +0.000 C 
ATOM     47  O   UNL     1      12.209 -44.235   8.699  0.00  0.00    +0.000 OA
ATOM     48  N   UNL     1      14.064 -44.876   7.524  0.00  0.00    +0.000 N 
ATOM     49  H   UNL     1      15.072 -44.980   7.711  0.00  0.00    +0.000 HD
ATOM     50  H   UNL     1      13.517 -45.459   6.864  0.00  0.00    +0.000 HD
ENDBRANCH  45  46
ENDBRANCH   1  45
TORSDOF 20
ENDMDL
