MODEL 1
REMARK VINA RESULT:    -7.735      0.000      0.000
REMARK INTER + INTRA:         -13.762
REMARK INTER:                 -12.030
REMARK INTRA:                  -1.732
REMARK UNBOUND:                -1.732
REMARK  Name = 
REMARK  14 active torsions:
REMARK  status: ('A' for Active; 'I' for Inactive)
REMARK    1  A    between atoms: C_1  and  C_2
REMARK    2  A    between atoms: C_2  and  C_3
REMARK    3  A    between atoms: C_2  and  O_9
REMARK    4  A    between atoms: C_10  and  N_16
REMARK    5  A    between atoms: N_16  and  C_17
REMARK    6  A    between atoms: C_17  and  C_26
REMARK    7  A    between atoms: C_18  and  O_25
REMARK    8  A    between atoms: C_27  and  O_28
REMARK    9  A    between atoms: O_28  and  C_29
REMARK   10  A    between atoms: C_33  and  N_34
REMARK   11  A    between atoms: C_37  and  C_44
REMARK   12  A    between atoms: C_37  and  C_45
REMARK   13  A    between atoms: C_40  and  C_41
REMARK   14  A    between atoms: C_41  and  O_43
REMARK                            x       y       z     vdW  Elec       q    Type
REMARK                         _______ _______ _______ _____ _____    ______ ____
ROOT
ATOM      1  C   UNL     1      22.429 -44.620   7.807  0.00  0.00    +0.000 C 
ATOM      2  C   UNL     1      21.510 -44.234   8.954  0.00  0.00    +0.000 C 
ATOM      3  C   UNL     1      20.157 -44.860   8.996  0.00  0.00    +0.000 C 
ATOM      4  N   UNL     1      20.395 -46.249   9.443  0.00  0.00    +0.000 NA
ATOM      5  C   UNL     1      20.900 -46.710   8.089  0.00  0.00    +0.000 C 
ATOM      6  C   UNL     1      22.193 -46.086   7.829  0.00  0.00    +0.000 C 
ATOM      7  C   UNL     1      19.656 -46.464   7.372  0.00  0.00    +0.000 C 
ATOM      8  C   UNL     1      19.386 -45.015   7.775  0.00  0.00    +0.000 C 
ATOM      9  H   UNL     1      19.472 -46.675   9.574  0.00  0.00    +0.000 HD
ENDROOT
BRANCH   1  10
ATOM     10  C   UNL     1      22.385 -43.860   6.598  0.00  0.00    +0.000 A 
ATOM     11  C   UNL     1      22.423 -44.575   5.384  0.00  0.00    +0.000 A 
ATOM     12  C   UNL     1      22.262 -43.981   4.149  0.00  0.00    +0.000 A 
ATOM     13  C   UNL     1      22.055 -42.651   4.052  0.00  0.00    +0.000 A 
ATOM     14  C   UNL     1      22.010 -41.930   5.182  0.00  0.00    +0.000 A 
ATOM     15  C   UNL     1      22.176 -42.539   6.470  0.00  0.00    +0.000 A 
BRANCH  15  16
ATOM     16  N   UNL     1      21.997 -41.564   7.450  0.00  0.00    +0.000 N 
ATOM     17  C   UNL     1      20.745 -40.945   7.614  0.00  0.00    +0.000 C 
ATOM     18  O   UNL     1      19.679 -41.653   7.585  0.00  0.00    +0.000 OA
ATOM     19  C   UNL     1      20.464 -39.503   7.825  0.00  0.00    +0.000 C 
ATOM     20  S   UNL     1      21.954 -38.642   8.306  0.00  0.00    +0.000 S 
ATOM     21  C   UNL     1      23.377 -39.582   7.734  0.00  0.00    +0.000 C 
ATOM     22  C   UNL     1      23.077 -41.038   8.222  0.00  0.00    +0.000 C 
ATOM     23  C   UNL     1      19.325 -39.291   8.804  0.00  0.00    +0.000 C 
ATOM     24  C   UNL     1      20.061 -38.939   6.456  0.00  0.00    +0.000 C 
BRANCH  22  25
ATOM     25  C   UNL     1      22.820 -40.815   9.659  0.00  0.00    +0.000 C 
ATOM     26  O   UNL     1      22.234 -41.721  10.350  0.00  0.00    +0.000 OA
BRANCH  25  27
ATOM     27  O   UNL     1      23.161 -39.694  10.355  0.00  0.00    +0.000 OA
ATOM     28  H   UNL     1      22.586 -38.855  10.423  0.00  0.00    +0.000 HD
ENDBRANCH  25  27
ENDBRANCH  22  25
ENDBRANCH  15  16
BRANCH  11  29
ATOM     29  O   UNL     1      22.627 -45.902   5.332  0.00  0.00    +0.000 OA
ATOM     30  C   UNL     1      23.624 -46.514   4.567  0.00  0.00    +0.000 C 
ENDBRANCH  11  29
ENDBRANCH   1  10
BRANCH   1  31
ATOM     31  N   UNL     1      23.763 -44.392   8.372  0.00  0.00    +0.000 N 
ATOM     32  H   UNL     1      23.597 -43.868   9.355  0.00  0.00    +0.000 HD
BRANCH  31  34
ATOM     33  C   UNL     1      25.972 -43.847   9.012  0.00  0.00    +0.000 A 
ATOM     34  C   UNL     1      25.104 -44.545   8.115  0.00  0.00    +0.000 A 
ATOM     35  C   UNL     1      25.722 -45.196   7.084  0.00  0.00    +0.000 A 
ATOM     36  C   UNL     1      27.074 -45.214   6.872  0.00  0.00    +0.000 A 
ATOM     37  C   UNL     1      27.900 -44.549   7.725  0.00  0.00    +0.000 A 
ATOM     38  C   UNL     1      27.321 -43.880   8.777  0.00  0.00    +0.000 A 
ATOM     39 CL   UNL     1      29.628 -44.562   7.473  0.00  0.00    +0.000 Cl
BRANCH  33  40
ATOM     40  C   UNL     1      25.480 -43.121  10.203  0.00  0.00    +0.000 C 
BRANCH  40  41
ATOM     41  C   UNL     1      26.629 -42.997  11.171  0.00  0.00    +0.000 A 
ATOM     42  C   UNL     1      27.532 -41.984  11.136  0.00  0.00    +0.000 A 
ATOM     43  C   UNL     1      28.533 -41.914  12.087  0.00  0.00    +0.000 A 
ATOM     44  C   UNL     1      28.643 -42.865  13.091  0.00  0.00    +0.000 A 
ATOM     45  C   UNL     1      27.726 -43.898  13.130  0.00  0.00    +0.000 A 
ATOM     46  C   UNL     1      26.729 -43.945  12.162  0.00  0.00    +0.000 A 
ENDBRANCH  40  41
BRANCH  40  47
ATOM     47  O   UNL     1      24.494 -43.798  10.914  0.00  0.00    +0.000 OA
ATOM     48  H   UNL     1      24.862 -43.929  11.828  0.00  0.00    +0.000 HD
ENDBRANCH  40  47
ENDBRANCH  33  40
ENDBRANCH  31  34
ENDBRANCH   1  31
BRANCH   2  49
ATOM     49  O   UNL     1      22.169 -44.877  10.062  0.00  0.00    +0.000 OA
ATOM     50  H   UNL     1      22.729 -44.159  10.468  0.00  0.00    +0.000 HD
ENDBRANCH   2  49
TORSDOF 11
ENDMDL
