MODEL 1
REMARK VINA RESULT:    -8.773      0.000      0.000
REMARK INTER + INTRA:         -16.400
REMARK INTER:                 -13.901
REMARK INTRA:                  -2.498
REMARK UNBOUND:                -2.498
REMARK  Name = 
REMARK  14 active torsions:
REMARK  status: ('A' for Active; 'I' for Inactive)
REMARK    1  A    between atoms: C_1  and  C_2
REMARK    2  A    between atoms: C_4  and  C_5
REMARK    3  A    between atoms: N_13  and  C_17
REMARK    4  A    between atoms: C_17  and  N_18
REMARK    5  A    between atoms: C_19  and  C_35
REMARK    6  A    between atoms: C_20  and  N_27
REMARK    7  A    between atoms: C_22  and  C_23
REMARK    8  A    between atoms: C_23  and  O_25
REMARK    9  A    between atoms: O_25  and  C_26
REMARK   10  A    between atoms: C_28  and  O_30
REMARK   11  A    between atoms: O_30  and  C_31
REMARK   12  A    between atoms: C_31  and  C_32
REMARK   13  A    between atoms: C_31  and  C_33
REMARK   14  A    between atoms: C_31  and  C_34
REMARK                            x       y       z     vdW  Elec       q    Type
REMARK                         _______ _______ _______ _____ _____    ______ ____
ROOT
ATOM      1  N   UNL     1      16.217 -36.985  11.332  0.00  0.00    +0.000 NA
ATOM      2  C   UNL     1      17.041 -37.953  10.716  0.00  0.00    +0.000 C 
ATOM      3  C   UNL     1      18.229 -37.206  10.136  0.00  0.00    +0.000 C 
ATOM      4  C   UNL     1      18.306 -35.954  10.985  0.00  0.00    +0.000 C 
ATOM      5  C   UNL     1      16.847 -35.752  11.423  0.00  0.00    +0.000 C 
ENDROOT
BRANCH   2   6
ATOM      6  C   UNL     1      16.425 -38.792   9.678  0.00  0.00    +0.000 A 
ATOM      7  C   UNL     1      15.710 -38.304   8.616  0.00  0.00    +0.000 A 
ATOM      8  C   UNL     1      15.149 -39.144   7.668  0.00  0.00    +0.000 A 
ATOM      9  C   UNL     1      15.291 -40.509   7.759  0.00  0.00    +0.000 A 
ATOM     10  C   UNL     1      16.006 -41.020   8.817  0.00  0.00    +0.000 A 
ATOM     11  C   UNL     1      16.563 -40.181   9.758  0.00  0.00    +0.000 A 
ENDBRANCH   2   6
BRANCH   3  12
ATOM     12  N   UNL     1      19.459 -37.968  10.227  0.00  0.00    +0.000 N 
ATOM     13  C   UNL     1      20.142 -38.450   9.074  0.00  0.00    +0.000 C 
ATOM     14  O   UNL     1      19.637 -38.189   7.963  0.00  0.00    +0.000 OA
ATOM     15  H   UNL     1      19.893 -38.192  11.149  0.00  0.00    +0.000 HD
BRANCH  13  16
ATOM     16  O   UNL     1      21.310 -39.175   9.110  0.00  0.00    +0.000 OA
BRANCH  16  17
ATOM     17  C   UNL     1      21.311 -40.610   9.103  0.00  0.00    +0.000 C 
ATOM     18  C   UNL     1      21.852 -41.053   7.760  0.00  0.00    +0.000 C 
ATOM     19  C   UNL     1      22.142 -41.157  10.215  0.00  0.00    +0.000 C 
ATOM     20  C   UNL     1      19.907 -41.148   9.229  0.00  0.00    +0.000 C 
ENDBRANCH  16  17
ENDBRANCH  13  16
ENDBRANCH   3  12
BRANCH   5  21
ATOM     21  C   UNL     1      16.244 -34.648  10.613  0.00  0.00    +0.000 C 
ATOM     22  O   UNL     1      15.156 -34.134  10.952  0.00  0.00    +0.000 OA
BRANCH  21  23
ATOM     23  O   UNL     1      16.880 -34.187   9.488  0.00  0.00    +0.000 OA
ATOM     24  C   UNL     1      16.927 -32.804   9.142  0.00  0.00    +0.000 C 
ENDBRANCH  21  23
ENDBRANCH   5  21
BRANCH   1  25
ATOM     25  C   UNL     1      15.172 -37.402  12.165  0.00  0.00    +0.000 C 
BRANCH  25  27
ATOM     26  C   UNL     1      13.137 -38.476  11.231  0.00  0.00    +0.000 A 
ATOM     27  N   UNL     1      13.873 -37.415  11.529  0.00  0.00    +0.000 N 
ATOM     28  C   UNL     1      13.236 -36.307  11.097  0.00  0.00    +0.000 A 
ATOM     29  C   UNL     1      12.079 -36.705  10.518  0.00  0.00    +0.000 A 
ATOM     30  N   UNL     1      12.011 -38.009  10.594  0.00  0.00    +0.000 NA
BRANCH  26  31
ATOM     31  C   UNL     1      13.299 -39.903  11.421  0.00  0.00    +0.000 A 
ATOM     32  N   UNL     1      12.932 -40.767  10.433  0.00  0.00    +0.000 NA
ATOM     33  C   UNL     1      13.033 -42.092  10.552  0.00  0.00    +0.000 A 
ATOM     34  C   UNL     1      13.522 -42.657  11.706  0.00  0.00    +0.000 A 
ATOM     35  N   UNL     1      13.893 -41.846  12.700  0.00  0.00    +0.000 NA
ATOM     36  C   UNL     1      13.777 -40.481  12.549  0.00  0.00    +0.000 A 
BRANCH  33  37
ATOM     37  C   UNL     1      12.612 -42.986   9.423  0.00  0.00    +0.000 C 
ATOM     38  N   UNL     1      11.682 -43.946   9.883  0.00  0.00    +0.000 NA
ATOM     39  C   UNL     1      10.366 -43.676   9.377  0.00  0.00    +0.000 C 
ATOM     40  C   UNL     1      10.477 -42.408   8.597  0.00  0.00    +0.000 C 
ATOM     41  C   UNL     1      11.942 -42.163   8.389  0.00  0.00    +0.000 C 
ATOM     42  H   UNL     1      11.947 -44.912   9.618  0.00  0.00    +0.000 HD
ENDBRANCH  33  37
ENDBRANCH  26  31
ENDBRANCH  25  27
ENDBRANCH   1  25
TORSDOF 10
ENDMDL
