MODEL 1
REMARK VINA RESULT:    -6.419      0.000      0.000
REMARK INTER + INTRA:         -11.383
REMARK INTER:                 -10.734
REMARK INTRA:                  -0.649
REMARK UNBOUND:                -0.649
REMARK  Name = 
REMARK  14 active torsions:
REMARK  status: ('A' for Active; 'I' for Inactive)
REMARK    1  A    between atoms: N_1  and  C_21
REMARK    2  A    between atoms: C_2  and  C_14
REMARK    3  A    between atoms: C_5  and  S_6
REMARK    4  A    between atoms: S_6  and  C_7
REMARK    5  A    between atoms: C_7  and  C_8
REMARK    6  A    between atoms: N_10  and  N_11
REMARK    7  A    between atoms: C_17  and  C_20
REMARK    8  A    between atoms: C_22  and  O_23
REMARK    9  A    between atoms: O_23  and  C_24
REMARK   10  A    between atoms: C_28  and  C_29
REMARK   11  A    between atoms: C_29  and  C_30
REMARK   12  A    between atoms: C_29  and  C_35
REMARK   13  A    between atoms: C_29  and  C_40
REMARK   14  A    between atoms: C_40  and  O_42
REMARK                            x       y       z     vdW  Elec       q    Type
REMARK                         _______ _______ _______ _____ _____    ______ ____
ROOT
ATOM      1  C   UNL     1      21.817 -44.732   8.346  0.00  0.00    +0.000 A 
ATOM      2  C   UNL     1      20.744 -45.646   8.330  0.00  0.00    +0.000 A 
ATOM      3  C   UNL     1      20.477 -46.468   9.398  0.00  0.00    +0.000 A 
ATOM      4  C   UNL     1      21.293 -46.377  10.501  0.00  0.00    +0.000 A 
ATOM      5  C   UNL     1      22.343 -45.489  10.528  0.00  0.00    +0.000 A 
ATOM      6  C   UNL     1      22.635 -44.630   9.429  0.00  0.00    +0.000 A 
ENDROOT
BRANCH   1   7
ATOM      7  N   UNL     1      21.950 -43.974   7.174  0.00  0.00    +0.000 N 
ATOM      8  C   UNL     1      21.323 -42.825   6.880  0.00  0.00    +0.000 A 
ATOM      9  N   UNL     1      21.733 -42.479   5.621  0.00  0.00    +0.000 NA
ATOM     10  N   UNL     1      22.562 -43.388   5.196  0.00  0.00    +0.000 NA
ATOM     11  C   UNL     1      22.738 -44.342   6.110  0.00  0.00    +0.000 A 
BRANCH   8  12
ATOM     12  C   UNL     1      20.361 -42.020   7.650  0.00  0.00    +0.000 A 
ATOM     13  C   UNL     1      19.610 -42.448   8.697  0.00  0.00    +0.000 A 
ATOM     14  C   UNL     1      18.719 -41.575   9.349  0.00  0.00    +0.000 A 
ATOM     15  C   UNL     1      18.577 -40.265   8.956  0.00  0.00    +0.000 A 
ATOM     16  C   UNL     1      19.331 -39.821   7.900  0.00  0.00    +0.000 A 
ATOM     17  C   UNL     1      20.191 -40.686   7.279  0.00  0.00    +0.000 A 
ATOM     18  C   UNL     1      17.650 -39.313   9.616  0.00  0.00    +0.000 C 
ENDBRANCH   8  12
BRANCH  11  19
ATOM     19  S   UNL     1      23.755 -45.781   5.889  0.00  0.00    +0.000 S 
BRANCH  19  20
ATOM     20  C   UNL     1      22.828 -47.161   5.206  0.00  0.00    +0.000 C 
BRANCH  20  21
ATOM     21  C   UNL     1      22.136 -48.003   6.168  0.00  0.00    +0.000 C 
ATOM     22  O   UNL     1      22.792 -48.349   7.202  0.00  0.00    +0.000 OA
ATOM     23  N   UNL     1      20.818 -48.454   6.034  0.00  0.00    +0.000 N 
ATOM     24  H   UNL     1      20.240 -48.216   5.208  0.00  0.00    +0.000 HD
BRANCH  23  25
ATOM     25  N   UNL     1      20.196 -49.268   7.004  0.00  0.00    +0.000 N 
ATOM     26  C   UNL     1      18.784 -49.426   7.076  0.00  0.00    +0.000 C 
ATOM     27  O   UNL     1      18.064 -48.819   6.247  0.00  0.00    +0.000 OA
ATOM     28  H   UNL     1      20.816 -49.767   7.686  0.00  0.00    +0.000 HD
ENDBRANCH  23  25
ENDBRANCH  20  21
ENDBRANCH  19  20
ENDBRANCH  11  19
ENDBRANCH   1   7
BRANCH   2  29
ATOM     29  O   UNL     1      19.967 -45.699   7.220  0.00  0.00    +0.000 OA
ATOM     30  C   UNL     1      18.588 -45.544   7.146  0.00  0.00    +0.000 C 
ENDBRANCH   2  29
BRANCH   6  31
ATOM     31  C   UNL     1      23.759 -43.723   9.524  0.00  0.00    +0.000 C 
BRANCH  31  32
ATOM     32  C   UNL     1      23.503 -42.308   9.244  0.00  0.00    +0.000 A 
ATOM     33  S   UNL     1      22.469 -41.357  10.361  0.00  0.00    +0.000 S 
ATOM     34  C   UNL     1      22.596 -39.782   9.481  0.00  0.00    +0.000 A 
ATOM     35  C   UNL     1      23.411 -40.129   8.426  0.00  0.00    +0.000 A 
ATOM     36  C   UNL     1      23.837 -41.385   8.343  0.00  0.00    +0.000 A 
ENDBRANCH  31  32
BRANCH  31  37
ATOM     37  C   UNL     1      24.936 -44.294   8.853  0.00  0.00    +0.000 A 
ATOM     38  S   UNL     1      25.492 -45.955   9.073  0.00  0.00    +0.000 S 
ATOM     39  C   UNL     1      26.929 -45.838   7.875  0.00  0.00    +0.000 A 
ATOM     40  C   UNL     1      26.791 -44.563   7.475  0.00  0.00    +0.000 A 
ATOM     41  C   UNL     1      25.799 -43.801   7.964  0.00  0.00    +0.000 A 
ENDBRANCH  31  37
BRANCH  31  42
ATOM     42  C   UNL     1      24.224 -43.704  10.994  0.00  0.00    +0.000 C 
ATOM     43  O   UNL     1      23.542 -44.214  11.899  0.00  0.00    +0.000 OA
BRANCH  42  44
ATOM     44  O   UNL     1      25.418 -43.093  11.256  0.00  0.00    +0.000 OA
ATOM     45  H   UNL     1      26.195 -43.060  10.585  0.00  0.00    +0.000 HD
ENDBRANCH  42  44
ENDBRANCH  31  42
ENDBRANCH   6  31
TORSDOF 12
ENDMDL
