MODEL 1
REMARK VINA RESULT:    -9.353      0.000      0.000
REMARK INTER + INTRA:         -11.762
REMARK INTER:                 -12.908
REMARK INTRA:                   1.146
REMARK UNBOUND:                 1.146
REMARK  Name = 
REMARK  8 active torsions:
REMARK  status: ('A' for Active; 'I' for Inactive)
REMARK    1  A    between atoms: N_1  and  C_15
REMARK    2  A    between atoms: C_2  and  C_12
REMARK    3  A    between atoms: C_15  and  C_16
REMARK    4  A    between atoms: C_16  and  O_22
REMARK    5  A    between atoms: O_22  and  C_23
REMARK    6  A    between atoms: C_27  and  C_28
REMARK    7  A    between atoms: C_28  and  O_30
REMARK    8  A    between atoms: N_34  and  C_37
REMARK                            x       y       z     vdW  Elec       q    Type
REMARK                         _______ _______ _______ _____ _____    ______ ____
ROOT
ATOM      1  C   UNL     1      15.786 -40.889   9.334  0.00  0.00    +0.000 C 
ATOM      2  C   UNL     1      15.549 -40.343   7.987  0.00  0.00    +0.000 C 
ATOM      3  C   UNL     1      16.416 -40.835   6.876  0.00  0.00    +0.000 C 
ATOM      4  N   UNL     1      17.712 -41.291   7.206  0.00  0.00    +0.000 NA
ATOM      5  C   UNL     1      17.799 -42.070   8.395  0.00  0.00    +0.000 C 
ATOM      6  C   UNL     1      16.464 -42.221   9.090  0.00  0.00    +0.000 C 
ATOM      7  H   UNL     1      18.414 -40.570   7.175  0.00  0.00    +0.000 HD
ENDROOT
BRANCH   1   8
ATOM      8  C   UNL     1      16.807 -40.142  10.179  0.00  0.00    +0.000 C 
BRANCH   8   9
ATOM      9  N   UNL     1      16.849 -38.751  10.204  0.00  0.00    +0.000 N 
ATOM     10  C   UNL     1      17.891 -38.107   9.667  0.00  0.00    +0.000 A 
ATOM     11  N   UNL     1      17.969 -36.753   9.642  0.00  0.00    +0.000 NA
ATOM     12  C   UNL     1      17.037 -35.958  10.143  0.00  0.00    +0.000 A 
ATOM     13  C   UNL     1      15.941 -36.572  10.712  0.00  0.00    +0.000 A 
ATOM     14  C   UNL     1      15.897 -37.936  10.717  0.00  0.00    +0.000 A 
ATOM     15  O   UNL     1      14.919 -38.487  11.226  0.00  0.00    +0.000 OA
ATOM     16  C   UNL     1      14.897 -35.824  11.270  0.00  0.00    +0.000 A 
ATOM     17  C   UNL     1      14.958 -34.452  11.256  0.00  0.00    +0.000 A 
ATOM     18  C   UNL     1      16.051 -33.842  10.688  0.00  0.00    +0.000 A 
ATOM     19  C   UNL     1      17.096 -34.582  10.129  0.00  0.00    +0.000 A 
BRANCH  10  20
ATOM     20  C   UNL     1      19.100 -38.773   9.066  0.00  0.00    +0.000 C 
ATOM     21  C   UNL     1      20.189 -37.882   8.562  0.00  0.00    +0.000 C 
ATOM     22  C   UNL     1      19.301 -38.480   7.553  0.00  0.00    +0.000 C 
ENDBRANCH  10  20
ENDBRANCH   8   9
ENDBRANCH   1   8
BRANCH   1  23
ATOM     23  O   UNL     1      14.764 -41.079  10.142  0.00  0.00    +0.000 OA
BRANCH  23  24
ATOM     24  C   UNL     1      13.966 -41.902  10.665  0.00  0.00    +0.000 C 
ATOM     25  C   UNL     1      12.649 -41.534  11.328  0.00  0.00    +0.000 C 
ATOM     26  O   UNL     1      13.091 -41.038  12.480  0.00  0.00    +0.000 OA
ATOM     27  C   UNL     1      13.694 -42.251  12.949  0.00  0.00    +0.000 C 
ATOM     28  C   UNL     1      14.450 -42.803  11.768  0.00  0.00    +0.000 C 
ATOM     29  C   UNL     1      12.414 -43.043  12.995  0.00  0.00    +0.000 C 
ATOM     30  C   UNL     1      11.910 -42.783  11.802  0.00  0.00    +0.000 C 
ATOM     31  C   UNL     1      11.905 -40.857  10.300  0.00  0.00    +0.000 C 
ATOM     32  N   UNL     1      12.358 -41.553   9.103  0.00  0.00    +0.000 N 
ATOM     33  C   UNL     1      13.284 -42.591   9.525  0.00  0.00    +0.000 C 
ATOM     34  O   UNL     1      13.358 -43.681   8.983  0.00  0.00    +0.000 OA
ATOM     35  C   UNL     1      11.937 -41.253   7.731  0.00  0.00    +0.000 C 
BRANCH  28  36
ATOM     36  C   UNL     1      14.224 -44.219  11.503  0.00  0.00    +0.000 C 
ATOM     37  O   UNL     1      13.303 -44.929  11.969  0.00  0.00    +0.000 OA
BRANCH  36  38
ATOM     38  O   UNL     1      15.093 -44.916  10.652  0.00  0.00    +0.000 OA
ATOM     39  H   UNL     1      15.018 -44.831   9.631  0.00  0.00    +0.000 HD
ENDBRANCH  36  38
ENDBRANCH  28  36
ENDBRANCH  23  24
ENDBRANCH   1  23
TORSDOF 7
ENDMDL
