MODEL 1
REMARK VINA RESULT:    -9.469      0.000      0.000
REMARK INTER + INTRA:         -20.184
REMARK INTER:                 -17.496
REMARK INTRA:                  -2.688
REMARK UNBOUND:                -2.688
REMARK  Name = 
REMARK  16 active torsions:
REMARK  status: ('A' for Active; 'I' for Inactive)
REMARK    1  A    between atoms: C_1  and  C_6
REMARK    2  A    between atoms: C_8  and  N_9
REMARK    3  A    between atoms: C_12  and  N_13
REMARK    4  A    between atoms: N_13  and  C_14
REMARK    5  A    between atoms: C_15  and  O_16
REMARK    6  A    between atoms: O_16  and  C_17
REMARK    7  A    between atoms: C_27  and  C_29
REMARK    8  A    between atoms: C_29  and  N_30
REMARK    9  A    between atoms: N_30  and  C_31
REMARK   10  A    between atoms: C_31  and  C_32
REMARK   11  A    between atoms: C_36  and  N_37
REMARK   12  A    between atoms: N_37  and  C_38
REMARK   13  A    between atoms: N_37  and  C_46
REMARK   14  A    between atoms: C_38  and  C_39
REMARK   15  A    between atoms: C_38  and  C_45
REMARK   16  A    between atoms: C_46  and  C_47
REMARK                            x       y       z     vdW  Elec       q    Type
REMARK                         _______ _______ _______ _____ _____    ______ ____
ROOT
ATOM      1  N   UNL     1      20.792 -44.008   8.235  0.00  0.00    +0.000 N 
ATOM      2  C   UNL     1      19.601 -43.163   8.371  0.00  0.00    +0.000 C 
ATOM      3  O   UNL     1      19.854 -42.015   8.882  0.00  0.00    +0.000 OA
ENDROOT
BRANCH   1   9
ATOM      4  C   UNL     1      20.930 -45.475   6.214  0.00  0.00    +0.000 A 
ATOM      5  C   UNL     1      20.746 -46.777   5.696  0.00  0.00    +0.000 A 
ATOM      6  C   UNL     1      20.276 -47.813   6.446  0.00  0.00    +0.000 A 
ATOM      7  C   UNL     1      19.969 -47.557   7.771  0.00  0.00    +0.000 A 
ATOM      8  C   UNL     1      20.139 -46.302   8.290  0.00  0.00    +0.000 A 
ATOM      9  C   UNL     1      20.626 -45.221   7.525  0.00  0.00    +0.000 A 
BRANCH   4  10
ATOM     10  C   UNL     1      21.443 -44.458   5.325  0.00  0.00    +0.000 A 
ATOM     11  N   UNL     1      20.831 -43.588   4.569  0.00  0.00    +0.000 NA
ATOM     12  N   UNL     1      21.683 -42.822   3.901  0.00  0.00    +0.000 NA
ATOM     13  C   UNL     1      22.899 -43.248   4.268  0.00  0.00    +0.000 A 
ATOM     14  O   UNL     1      22.733 -44.241   5.132  0.00  0.00    +0.000 OA
ENDBRANCH   4  10
BRANCH   6  15
ATOM     15  N   UNL     1      20.130 -49.114   5.856  0.00  0.00    +0.000 N 
ATOM     16  H   UNL     1      19.203 -49.496   5.582  0.00  0.00    +0.000 HD
ATOM     17  H   UNL     1      20.970 -49.699   5.691  0.00  0.00    +0.000 HD
ENDBRANCH   6  15
ENDBRANCH   1   9
BRANCH   1  18
ATOM     18  C   UNL     1      21.969 -43.572   8.813  0.00  0.00    +0.000 A 
ATOM     19  C   UNL     1      22.732 -42.525   8.303  0.00  0.00    +0.000 A 
ATOM     20  C   UNL     1      23.893 -42.121   8.934  0.00  0.00    +0.000 A 
ATOM     21  C   UNL     1      24.364 -42.718  10.096  0.00  0.00    +0.000 A 
ATOM     22  C   UNL     1      23.619 -43.750  10.609  0.00  0.00    +0.000 A 
ATOM     23  C   UNL     1      22.469 -44.153   9.985  0.00  0.00    +0.000 A 
BRANCH  19  24
ATOM     24  O   UNL     1      22.275 -41.927   7.141  0.00  0.00    +0.000 OA
BRANCH  24  25
ATOM     25  C   UNL     1      22.107 -40.566   7.170  0.00  0.00    +0.000 A 
ATOM     26  C   UNL     1      21.352 -39.965   6.171  0.00  0.00    +0.000 A 
ATOM     27  C   UNL     1      21.133 -38.612   6.130  0.00  0.00    +0.000 A 
ATOM     28  C   UNL     1      21.667 -37.802   7.099  0.00  0.00    +0.000 A 
ATOM     29  C   UNL     1      22.416 -38.369   8.098  0.00  0.00    +0.000 A 
ATOM     30  C   UNL     1      22.627 -39.741   8.121  0.00  0.00    +0.000 A 
ENDBRANCH  24  25
ENDBRANCH  19  24
ENDBRANCH   1  18
BRANCH   2  31
ATOM     31  C   UNL     1      18.316 -43.633   7.954  0.00  0.00    +0.000 C 
BRANCH  31  32
ATOM     32  N   UNL     1      17.220 -42.751   7.834  0.00  0.00    +0.000 NA
ATOM     33  H   UNL     1      17.390 -41.849   7.347  0.00  0.00    +0.000 HD
BRANCH  32  34
ATOM     34  C   UNL     1      16.366 -42.660   8.962  0.00  0.00    +0.000 C 
BRANCH  34  35
ATOM     35  C   UNL     1      14.994 -42.365   8.712  0.00  0.00    +0.000 A 
ATOM     36  S   UNL     1      13.799 -43.583   7.983  0.00  0.00    +0.000 S 
ATOM     37  C   UNL     1      12.358 -42.579   8.244  0.00  0.00    +0.000 A 
ATOM     38  C   UNL     1      12.829 -41.458   8.824  0.00  0.00    +0.000 A 
ATOM     39  C   UNL     1      14.142 -41.315   9.069  0.00  0.00    +0.000 A 
BRANCH  39  40
ATOM     40  N   UNL     1      14.706 -40.054   9.615  0.00  0.00    +0.000 N 
BRANCH  40  41
ATOM     41  C   UNL     1      15.297 -39.102   8.716  0.00  0.00    +0.000 C 
ATOM     42  C   UNL     1      15.312 -39.702   7.316  0.00  0.00    +0.000 C 
BRANCH  41  43
ATOM     43  C   UNL     1      16.603 -38.553   9.052  0.00  0.00    +0.000 A 
ATOM     44  C   UNL     1      16.757 -37.204   9.280  0.00  0.00    +0.000 A 
ATOM     45  C   UNL     1      18.011 -36.650   9.597  0.00  0.00    +0.000 A 
ATOM     46  C   UNL     1      19.116 -37.438   9.685  0.00  0.00    +0.000 A 
ATOM     47  C   UNL     1      18.986 -38.781   9.462  0.00  0.00    +0.000 A 
ATOM     48  C   UNL     1      17.737 -39.321   9.149  0.00  0.00    +0.000 A 
ENDBRANCH  41  43
ENDBRANCH  40  41
BRANCH  40  49
ATOM     49  C   UNL     1      14.622 -39.821  11.040  0.00  0.00    +0.000 C 
BRANCH  49  50
ATOM     50  C   UNL     1      13.917 -38.540  11.318  0.00  0.00    +0.000 A 
ATOM     51  C   UNL     1      14.477 -37.476  11.979  0.00  0.00    +0.000 A 
ATOM     52  C   UNL     1      13.732 -36.310  12.167  0.00  0.00    +0.000 A 
ATOM     53  N   UNL     1      12.482 -36.231  11.706  0.00  0.00    +0.000 NA
ATOM     54  C   UNL     1      11.906 -37.241  11.062  0.00  0.00    +0.000 A 
ATOM     55  C   UNL     1      12.624 -38.409  10.864  0.00  0.00    +0.000 A 
ENDBRANCH  49  50
ENDBRANCH  40  49
ENDBRANCH  39  40
ENDBRANCH  34  35
ENDBRANCH  32  34
ENDBRANCH  31  32
ENDBRANCH   2  31
TORSDOF 15
ENDMDL
