MODEL 1
REMARK VINA RESULT:   -10.390      0.000      0.000
REMARK INTER + INTRA:         -19.020
REMARK INTER:                 -15.856
REMARK INTRA:                  -3.164
REMARK UNBOUND:                -3.164
REMARK  Name = 
REMARK  10 active torsions:
REMARK  status: ('A' for Active; 'I' for Inactive)
REMARK    1  A    between atoms: C_4  and  C_6
REMARK    2  A    between atoms: C_8  and  O_9
REMARK    3  A    between atoms: O_9  and  C_10
REMARK    4  A    between atoms: C_18  and  C_20
REMARK    5  A    between atoms: C_20  and  O_21
REMARK    6  A    between atoms: O_21  and  C_22
REMARK    7  A    between atoms: C_28  and  N_29
REMARK    8  A    between atoms: C_32  and  C_33
REMARK    9  A    between atoms: C_33  and  C_34
REMARK   10  A    between atoms: C_34  and  C_35
REMARK                            x       y       z     vdW  Elec       q    Type
REMARK                         _______ _______ _______ _____ _____    ______ ____
ROOT
ATOM      1  O   UNL     1      16.154 -41.439   8.380  0.00  0.00    +0.000 OA
ENDROOT
BRANCH   1   2
ATOM      2  C   UNL     1      17.284 -42.227   8.298  0.00  0.00    +0.000 A 
ATOM      3  C   UNL     1      17.221 -43.603   8.299  0.00  0.00    +0.000 A 
ATOM      4  C   UNL     1      18.408 -44.343   8.215  0.00  0.00    +0.000 A 
ATOM      5  C   UNL     1      19.622 -43.704   8.135  0.00  0.00    +0.000 A 
ATOM      6  F   UNL     1      20.797 -44.392   8.052  0.00  0.00    +0.000 F 
ATOM      7  C   UNL     1      19.684 -42.322   8.134  0.00  0.00    +0.000 A 
ATOM      8  C   UNL     1      18.504 -41.588   8.217  0.00  0.00    +0.000 A 
BRANCH   8   9
ATOM      9  N   UNL     1      18.550 -40.192   8.216  0.00  0.00    +0.000 N 
ATOM     10  C   UNL     1      18.341 -39.335   7.060  0.00  0.00    +0.000 C 
ATOM     11  C   UNL     1      19.585 -38.550   6.805  0.00  0.00    +0.000 C 
ATOM     12  C   UNL     1      20.332 -38.073   7.986  0.00  0.00    +0.000 C 
ATOM     13  C   UNL     1      20.138 -38.774   9.271  0.00  0.00    +0.000 C 
ATOM     14  C   UNL     1      18.831 -39.487   9.455  0.00  0.00    +0.000 C 
BRANCH  12  15
ATOM     15  C   UNL     1      21.817 -38.080   7.597  0.00  0.00    +0.000 C 
BRANCH  15  16
ATOM     16  C   UNL     1      22.060 -38.905   6.363  0.00  0.00    +0.000 C 
BRANCH  16  17
ATOM     17  C   UNL     1      22.603 -40.222   6.785  0.00  0.00    +0.000 A 
ATOM     18  C   UNL     1      22.500 -41.342   5.960  0.00  0.00    +0.000 A 
ATOM     19  C   UNL     1      22.995 -42.565   6.326  0.00  0.00    +0.000 A 
ATOM     20  C   UNL     1      23.624 -42.740   7.546  0.00  0.00    +0.000 A 
ATOM     21  C   UNL     1      23.733 -41.639   8.375  0.00  0.00    +0.000 A 
ATOM     22  C   UNL     1      23.232 -40.407   8.000  0.00  0.00    +0.000 A 
ENDBRANCH  16  17
ENDBRANCH  15  16
ENDBRANCH  12  15
ENDBRANCH   8   9
ENDBRANCH   1   2
BRANCH   1  23
ATOM     23  C   UNL     1      14.892 -42.049   8.491  0.00  0.00    +0.000 C 
BRANCH  23  33
ATOM     24  N   UNL     1      13.797 -41.047  10.548  0.00  0.00    +0.000 N 
ATOM     25  C   UNL     1      13.286 -41.025  11.914  0.00  0.00    +0.000 C 
ATOM     26  C   UNL     1      13.484 -39.613  12.316  0.00  0.00    +0.000 C 
ATOM     27  C   UNL     1      13.355 -38.781  11.095  0.00  0.00    +0.000 C 
ATOM     28  C   UNL     1      13.574 -39.744   9.952  0.00  0.00    +0.000 C 
ATOM     29  N   UNL     1      12.683 -39.171  13.422  0.00  0.00    +0.000 NA
ATOM     30  C   UNL     1      11.358 -39.680  13.467  0.00  0.00    +0.000 C 
ATOM     31  C   UNL     1      11.291 -41.186  13.298  0.00  0.00    +0.000 C 
ATOM     32  C   UNL     1      11.839 -41.466  11.914  0.00  0.00    +0.000 C 
ATOM     33  C   UNL     1      14.413 -42.145   9.909  0.00  0.00    +0.000 C 
ATOM     34  O   UNL     1      14.554 -43.214  10.554  0.00  0.00    +0.000 OA
ATOM     35  H   UNL     1      13.182 -39.167  14.333  0.00  0.00    +0.000 HD
BRANCH  27  36
ATOM     36  C   UNL     1      14.420 -37.739  11.131  0.00  0.00    +0.000 A 
ATOM     37  C   UNL     1      14.040 -36.431  11.320  0.00  0.00    +0.000 A 
ATOM     38  C   UNL     1      15.038 -35.448  11.354  0.00  0.00    +0.000 A 
ATOM     39  C   UNL     1      16.363 -35.791  11.201  0.00  0.00    +0.000 A 
ATOM     40  C   UNL     1      16.724 -37.116  11.011  0.00  0.00    +0.000 A 
ATOM     41  C   UNL     1      15.742 -38.095  10.977  0.00  0.00    +0.000 A 
BRANCH  38  42
ATOM     42  O   UNL     1      14.694 -34.119  11.543  0.00  0.00    +0.000 OA
ATOM     43  C   UNL     1      15.300 -33.097  10.787  0.00  0.00    +0.000 C 
ENDBRANCH  38  42
ENDBRANCH  27  36
ENDBRANCH  23  33
ENDBRANCH   1  23
TORSDOF 9
ENDMDL
