MODEL 1
REMARK VINA RESULT:    -9.806      0.000      0.000
REMARK INTER + INTRA:         -16.902
REMARK INTER:                 -14.391
REMARK INTRA:                  -2.511
REMARK UNBOUND:                -2.511
REMARK  Name = 
REMARK  10 active torsions:
REMARK  status: ('A' for Active; 'I' for Inactive)
REMARK    1  A    between atoms: N_3  and  C_12
REMARK    2  A    between atoms: C_12  and  C_13
REMARK    3  A    between atoms: C_13  and  C_14
REMARK    4  A    between atoms: C_14  and  O_16
REMARK    5  A    between atoms: O_16  and  N_17
REMARK    6  A    between atoms: C_20  and  C_28
REMARK    7  A    between atoms: C_28  and  C_29
REMARK    8  A    between atoms: N_31  and  C_32
REMARK    9  A    between atoms: C_33  and  C_39
REMARK   10  A    between atoms: C_35  and  C_38
REMARK                            x       y       z     vdW  Elec       q    Type
REMARK                         _______ _______ _______ _____ _____    ______ ____
ROOT
ATOM      1  N   UNL     1      18.188 -38.374   9.102  0.00  0.00    +0.000 N 
ATOM      2  C   UNL     1      17.197 -38.982   8.276  0.00  0.00    +0.000 C 
ATOM      3  O   UNL     1      15.981 -38.590   8.291  0.00  0.00    +0.000 OA
ATOM      4  C   UNL     1      17.495 -40.109   7.340  0.00  0.00    +0.000 C 
ATOM      5  N   UNL     1      18.933 -40.157   7.167  0.00  0.00    +0.000 NA
ATOM      6  C   UNL     1      19.403 -38.788   7.080  0.00  0.00    +0.000 C 
ATOM      7  C   UNL     1      19.502 -38.234   8.511  0.00  0.00    +0.000 C 
ATOM      8  C   UNL     1      20.532 -39.119   9.193  0.00  0.00    +0.000 C 
ATOM      9  C   UNL     1      21.867 -38.751   8.591  0.00  0.00    +0.000 C 
ATOM     10  C   UNL     1      21.895 -39.133   7.153  0.00  0.00    +0.000 C 
ATOM     11  C   UNL     1      20.701 -38.728   6.364  0.00  0.00    +0.000 C 
ATOM     12  H   UNL     1      19.237 -40.624   6.283  0.00  0.00    +0.000 HD
ENDROOT
BRANCH   1  13
ATOM     13  O   UNL     1      17.817 -37.992  10.344  0.00  0.00    +0.000 OA
BRANCH  13  14
ATOM     14  C   UNL     1      17.554 -36.732  10.794  0.00  0.00    +0.000 C 
ATOM     15  O   UNL     1      18.533 -36.022  11.135  0.00  0.00    +0.000 OA
BRANCH  14  16
ATOM     16  C   UNL     1      16.200 -36.144  10.910  0.00  0.00    +0.000 C 
BRANCH  16  17
ATOM     17  C   UNL     1      15.396 -36.744  12.019  0.00  0.00    +0.000 C 
BRANCH  17  20
ATOM     18  C   UNL     1      13.050 -36.864  11.132  0.00  0.00    +0.000 A 
ATOM     19  O   UNL     1      12.812 -35.634  11.278  0.00  0.00    +0.000 OA
ATOM     20  N   UNL     1      14.235 -37.405  11.465  0.00  0.00    +0.000 N 
ATOM     21  C   UNL     1      14.129 -38.712  11.177  0.00  0.00    +0.000 A 
ATOM     22  C   UNL     1      12.856 -38.959  10.662  0.00  0.00    +0.000 A 
ATOM     23  O   UNL     1      12.251 -37.804  10.659  0.00  0.00    +0.000 OA
ATOM     24  C   UNL     1      12.470 -40.222  10.279  0.00  0.00    +0.000 A 
ATOM     25  C   UNL     1      13.363 -41.251  10.412  0.00  0.00    +0.000 A 
ATOM     26  C   UNL     1      14.632 -41.017  10.923  0.00  0.00    +0.000 A 
ATOM     27  C   UNL     1      15.022 -39.754  11.307  0.00  0.00    +0.000 A 
ATOM     28 CL   UNL     1      12.973 -42.895   9.955  0.00  0.00    +0.000 Cl
ENDBRANCH  17  20
ENDBRANCH  16  17
ENDBRANCH  14  16
ENDBRANCH  13  14
ENDBRANCH   1  13
BRANCH   4  29
ATOM     29  C   UNL     1      16.948 -41.383   7.960  0.00  0.00    +0.000 C 
BRANCH  29  30
ATOM     30  C   UNL     1      17.947 -42.475   7.977  0.00  0.00    +0.000 C 
ATOM     31  O   UNL     1      18.791 -42.481   8.876  0.00  0.00    +0.000 OA
ATOM     32  N   UNL     1      17.903 -43.463   6.978  0.00  0.00    +0.000 N 
ATOM     33  H   UNL     1      17.112 -43.325   6.260  0.00  0.00    +0.000 HD
BRANCH  32  34
ATOM     34  C   UNL     1      18.771 -44.553   6.859  0.00  0.00    +0.000 A 
ATOM     35  C   UNL     1      18.378 -45.760   7.441  0.00  0.00    +0.000 A 
ATOM     36  C   UNL     1      19.183 -46.866   7.366  0.00  0.00    +0.000 A 
ATOM     37  C   UNL     1      20.385 -46.775   6.713  0.00  0.00    +0.000 A 
ATOM     38  C   UNL     1      20.816 -45.610   6.125  0.00  0.00    +0.000 A 
ATOM     39  C   UNL     1      19.966 -44.492   6.219  0.00  0.00    +0.000 A 
ATOM     40  C   UNL     1      21.269 -47.966   6.624  0.00  0.00    +0.000 C 
ATOM     41  C   UNL     1      17.056 -45.831   8.149  0.00  0.00    +0.000 C 
ENDBRANCH  32  34
ENDBRANCH  29  30
ENDBRANCH   4  29
TORSDOF 8
ENDMDL
