MODEL 1
REMARK VINA RESULT:    -7.554      0.000      0.000
REMARK INTER + INTRA:         -14.703
REMARK INTER:                 -13.516
REMARK INTRA:                  -1.187
REMARK UNBOUND:                -1.187
REMARK  Name = 
REMARK  17 active torsions:
REMARK  status: ('A' for Active; 'I' for Inactive)
REMARK    1  A    between atoms: C_1  and  N_3
REMARK    2  A    between atoms: C_1  and  S_8
REMARK    3  A    between atoms: S_8  and  C_9
REMARK    4  A    between atoms: C_9  and  C_10
REMARK    5  A    between atoms: C_9  and  C_13
REMARK    6  A    between atoms: C_10  and  O_12
REMARK    7  A    between atoms: C_13  and  C_14
REMARK    8  A    between atoms: C_15  and  O_32
REMARK    9  A    between atoms: C_16  and  C_24
REMARK   10  A    between atoms: C_18  and  O_22
REMARK   11  A    between atoms: C_19  and  O_20
REMARK   12  A    between atoms: O_20  and  C_21
REMARK   13  A    between atoms: O_22  and  C_23
REMARK   14  A    between atoms: C_24  and  N_25
REMARK   15  A    between atoms: N_25  and  C_26
REMARK   16  A    between atoms: C_26  and  C_27
REMARK   17  A    between atoms: O_32  and  C_33
REMARK                            x       y       z     vdW  Elec       q    Type
REMARK                         _______ _______ _______ _____ _____    ______ ____
ROOT
ATOM      1  C   UNL     1      16.430 -39.272  10.197  0.00  0.00    +0.000 A 
ATOM      2  C   UNL     1      17.609 -39.293   9.517  0.00  0.00    +0.000 A 
ATOM      3  C   UNL     1      18.481 -38.195   9.498  0.00  0.00    +0.000 A 
ATOM      4  C   UNL     1      18.134 -37.051  10.195  0.00  0.00    +0.000 A 
ATOM      5  C   UNL     1      16.945 -36.995  10.896  0.00  0.00    +0.000 A 
ATOM      6  C   UNL     1      16.121 -38.093  10.887  0.00  0.00    +0.000 A 
ENDROOT
BRANCH   6   7
ATOM      7  O   UNL     1      14.945 -38.048  11.576  0.00  0.00    +0.000 OA
ATOM      8  C   UNL     1      13.807 -37.311  11.172  0.00  0.00    +0.000 C 
ENDBRANCH   6   7
BRANCH   5   9
ATOM      9  O   UNL     1      16.612 -35.857  11.581  0.00  0.00    +0.000 OA
ATOM     10  C   UNL     1      16.170 -34.666  11.005  0.00  0.00    +0.000 C 
ENDBRANCH   5   9
BRANCH   2  11
ATOM     11  O   UNL     1      18.009 -40.385   8.808  0.00  0.00    +0.000 OA
ATOM     12  C   UNL     1      18.606 -41.549   9.285  0.00  0.00    +0.000 C 
ENDBRANCH   2  11
BRANCH   1  13
ATOM     13  C   UNL     1      15.525 -40.388  10.262  0.00  0.00    +0.000 C 
BRANCH  13  14
ATOM     14  C   UNL     1      14.982 -40.908   8.950  0.00  0.00    +0.000 C 
BRANCH  14  15
ATOM     15  C   UNL     1      13.573 -40.456   8.782  0.00  0.00    +0.000 C 
ATOM     16  O   UNL     1      12.956 -40.048   9.789  0.00  0.00    +0.000 OA
BRANCH  15  17
ATOM     17  O   UNL     1      13.043 -40.527   7.497  0.00  0.00    +0.000 OA
ATOM     18  H   UNL     1      12.993 -41.422   7.059  0.00  0.00    +0.000 HD
ENDBRANCH  15  17
ENDBRANCH  14  15
BRANCH  14  19
ATOM     19  S   UNL     1      14.973 -42.682   9.035  0.00  0.00    +0.000 S 
BRANCH  19  20
ATOM     20  C   UNL     1      13.879 -43.490  10.121  0.00  0.00    +0.000 C 
ATOM     21  S   UNL     1      14.507 -44.562  11.247  0.00  0.00    +0.000 S 
BRANCH  20  22
ATOM     22  N   UNL     1      12.467 -43.326  10.152  0.00  0.00    +0.000 N 
ATOM     23  C   UNL     1      11.568 -42.895  11.171  0.00  0.00    +0.000 C 
ATOM     24  C   UNL     1      10.210 -42.722  10.529  0.00  0.00    +0.000 C 
ATOM     25  C   UNL     1      10.497 -42.734   9.027  0.00  0.00    +0.000 C 
ATOM     26  C   UNL     1      11.671 -43.654   8.956  0.00  0.00    +0.000 C 
ENDBRANCH  20  22
ENDBRANCH  19  20
ENDBRANCH  14  19
ENDBRANCH  13  14
ENDBRANCH   1  13
BRANCH   3  27
ATOM     27  C   UNL     1      19.755 -38.280   8.730  0.00  0.00    +0.000 C 
BRANCH  27  28
ATOM     28  N   UNL     1      20.725 -38.948   9.575  0.00  0.00    +0.000 NA
ATOM     29  H   UNL     1      20.484 -39.987   9.588  0.00  0.00    +0.000 HD
BRANCH  28  30
ATOM     30  C   UNL     1      22.081 -38.779   9.077  0.00  0.00    +0.000 C 
BRANCH  30  31
ATOM     31  C   UNL     1      22.220 -39.636   7.881  0.00  0.00    +0.000 A 
ATOM     32  S   UNL     1      22.104 -41.436   7.857  0.00  0.00    +0.000 S 
ATOM     33  C   UNL     1      22.388 -41.656   6.032  0.00  0.00    +0.000 A 
ATOM     34  C   UNL     1      22.539 -40.329   5.657  0.00  0.00    +0.000 A 
ATOM     35  C   UNL     1      22.455 -39.368   6.564  0.00  0.00    +0.000 A 
ENDBRANCH  30  31
ENDBRANCH  28  30
ENDBRANCH  27  28
ENDBRANCH   3  27
TORSDOF 14
ENDMDL
