MODEL 1
REMARK VINA RESULT:   -11.973      0.000      0.000
REMARK INTER + INTRA:         -14.277
REMARK INTER:                 -14.773
REMARK INTRA:                   0.496
REMARK UNBOUND:                 0.496
REMARK  Name = 
REMARK  6 active torsions:
REMARK  status: ('A' for Active; 'I' for Inactive)
REMARK    1  A    between atoms: C_2  and  C_4
REMARK    2  A    between atoms: C_18  and  N_19
REMARK    3  A    between atoms: N_19  and  C_20
REMARK    4  A    between atoms: C_26  and  C_27
REMARK    5  A    between atoms: C_27  and  C_41
REMARK    6  A    between atoms: C_37  and  C_40
REMARK                            x       y       z     vdW  Elec       q    Type
REMARK                         _______ _______ _______ _____ _____    ______ ____
ROOT
ATOM      1  N   UNL     1      17.857 -39.075   9.330  0.00  0.00    +0.000 N 
ATOM      2  C   UNL     1      18.235 -37.882   9.874  0.00  0.00    +0.000 C 
ATOM      3  O   UNL     1      19.459 -37.861  10.365  0.00  0.00    +0.000 OA
ATOM      4  C   UNL     1      18.934 -40.125   9.465  0.00  0.00    +0.000 C 
ATOM      5  C   UNL     1      18.499 -41.392   8.921  0.00  0.00    +0.000 A 
ATOM      6  C   UNL     1      17.232 -41.994   8.939  0.00  0.00    +0.000 A 
ATOM      7  O   UNL     1      16.060 -41.447   9.447  0.00  0.00    +0.000 OA
ATOM      8  C   UNL     1      15.649 -40.080   9.517  0.00  0.00    +0.000 C 
ATOM      9  C   UNL     1      16.625 -39.308   8.687  0.00  0.00    +0.000 C 
ATOM     10  C   UNL     1      14.277 -39.968   8.919  0.00  0.00    +0.000 C 
ATOM     11  C   UNL     1      13.202 -40.076   9.992  0.00  0.00    +0.000 C 
ATOM     12  C   UNL     1      13.537 -41.082  11.047  0.00  0.00    +0.000 C 
ATOM     13  C   UNL     1      14.861 -40.807  11.681  0.00  0.00    +0.000 C 
ATOM     14  C   UNL     1      15.557 -39.633  10.953  0.00  0.00    +0.000 C 
ATOM     15  C   UNL     1      17.013 -43.247   8.426  0.00  0.00    +0.000 A 
ATOM     16  C   UNL     1      18.030 -43.980   7.866  0.00  0.00    +0.000 A 
ATOM     17  C   UNL     1      19.314 -43.393   7.836  0.00  0.00    +0.000 A 
ATOM     18  C   UNL     1      19.536 -42.152   8.342  0.00  0.00    +0.000 A 
ENDROOT
BRANCH  18  19
ATOM     19  C   UNL     1      20.917 -41.553   8.176  0.00  0.00    +0.000 C 
ATOM     20  N   UNL     1      21.701 -41.840   9.303  0.00  0.00    +0.000 N 
ATOM     21  C   UNL     1      22.973 -42.555   9.265  0.00  0.00    +0.000 A 
ATOM     22  C   UNL     1      23.252 -43.447   8.254  0.00  0.00    +0.000 A 
ATOM     23  C   UNL     1      22.139 -43.621   7.266  0.00  0.00    +0.000 C 
ATOM     24  C   UNL     1      21.520 -42.291   6.979  0.00  0.00    +0.000 C 
ATOM     25  C   UNL     1      22.821 -41.650   6.444  0.00  0.00    +0.000 C 
ATOM     26  C   UNL     1      23.189 -42.770   5.437  0.00  0.00    +0.000 C 
ATOM     27  C   UNL     1      22.774 -43.913   5.955  0.00  0.00    +0.000 C 
ATOM     28  C   UNL     1      24.442 -44.107   8.212  0.00  0.00    +0.000 A 
ATOM     29  C   UNL     1      25.432 -43.914   9.185  0.00  0.00    +0.000 A 
ATOM     30  C   UNL     1      25.145 -43.021  10.194  0.00  0.00    +0.000 A 
ATOM     31  C   UNL     1      23.936 -42.358  10.227  0.00  0.00    +0.000 A 
ATOM     32  C   UNL     1      26.717 -44.654   9.104  0.00  0.00    +0.000 C 
ATOM     33  H   UNL     1      21.462 -41.581  10.275  0.00  0.00    +0.000 HD
BRANCH  19  34
ATOM     34  C   UNL     1      20.785 -40.177   7.696  0.00  0.00    +0.000 A 
ATOM     35  C   UNL     1      21.515 -39.127   8.107  0.00  0.00    +0.000 A 
ATOM     36 CL   UNL     1      22.467 -39.151   9.591  0.00  0.00    +0.000 Cl
ATOM     37  C   UNL     1      21.486 -37.870   7.488  0.00  0.00    +0.000 A 
ATOM     38  C   UNL     1      20.678 -37.678   6.415  0.00  0.00    +0.000 A 
ATOM     39  C   UNL     1      19.912 -38.715   5.961  0.00  0.00    +0.000 A 
ATOM     40  C   UNL     1      19.961 -39.927   6.579  0.00  0.00    +0.000 A 
ENDBRANCH  19  34
ENDBRANCH  18  19
BRANCH   2  41
ATOM     41  C   UNL     1      17.561 -36.615  10.024  0.00  0.00    +0.000 A 
ATOM     42  C   UNL     1      17.980 -35.514   9.247  0.00  0.00    +0.000 A 
ATOM     43  C   UNL     1      17.429 -34.257   9.338  0.00  0.00    +0.000 A 
ATOM     44  N   UNL     1      16.440 -34.061  10.209  0.00  0.00    +0.000 NA
ATOM     45  C   UNL     1      15.995 -35.073  10.981  0.00  0.00    +0.000 A 
ATOM     46  C   UNL     1      16.534 -36.352  10.911  0.00  0.00    +0.000 A 
ENDBRANCH   2  41
BRANCH  12  47
ATOM     47  N   UNL     1      12.499 -41.010  12.064  0.00  0.00    +0.000 NA
ATOM     48  C   UNL     1      12.296 -39.659  12.545  0.00  0.00    +0.000 C 
ATOM     49  H   UNL     1      11.604 -41.324  11.632  0.00  0.00    +0.000 HD
ENDBRANCH  12  47
TORSDOF 4
ENDMDL
