MODEL 1
REMARK VINA RESULT:    -7.909      0.000      0.000
REMARK INTER + INTRA:         -16.102
REMARK INTER:                 -13.227
REMARK INTRA:                  -2.876
REMARK UNBOUND:                -2.876
REMARK  Name = 
REMARK  14 active torsions:
REMARK  status: ('A' for Active; 'I' for Inactive)
REMARK    1  A    between atoms: C_2  and  C_13
REMARK    2  A    between atoms: N_5  and  C_6
REMARK    3  A    between atoms: C_6  and  C_7
REMARK    4  A    between atoms: C_7  and  N_8
REMARK    5  A    between atoms: C_16  and  C_18
REMARK    6  A    between atoms: C_19  and  O_20
REMARK    7  A    between atoms: O_20  and  C_21
REMARK    8  A    between atoms: C_25  and  O_26
REMARK    9  A    between atoms: O_26  and  C_27
REMARK   10  A    between atoms: C_29  and  C_30
REMARK   11  A    between atoms: C_30  and  C_31
REMARK   12  A    between atoms: N_37  and  C_39
REMARK   13  A    between atoms: C_39  and  C_40
REMARK   14  A    between atoms: C_40  and  C_41
REMARK                            x       y       z     vdW  Elec       q    Type
REMARK                         _______ _______ _______ _____ _____    ______ ____
ROOT
ATOM      1  C   UNL     1      23.782 -43.698   8.386  0.00  0.00    +0.000 C 
ATOM      2  C   UNL     1      25.297 -43.904   8.316  0.00  0.00    +0.000 C 
ATOM      3  N   UNL     1      25.713 -42.994   9.432  0.00  0.00    +0.000 N 
ATOM      4  C   UNL     1      26.431 -43.217  10.580  0.00  0.00    +0.000 C 
ATOM      5  O   UNL     1      26.429 -42.003  11.245  0.00  0.00    +0.000 OA
ATOM      6  C   UNL     1      25.054 -41.760   9.045  0.00  0.00    +0.000 C 
ATOM      7  C   UNL     1      23.822 -42.160   8.269  0.00  0.00    +0.000 C 
ENDROOT
BRANCH   1   9
ATOM      8  N   UNL     1      23.007 -43.668   5.901  0.00  0.00    +0.000 NA
ATOM      9  C   UNL     1      23.054 -44.181   7.181  0.00  0.00    +0.000 A 
ATOM     10  C   UNL     1      21.973 -45.020   7.222  0.00  0.00    +0.000 A 
ATOM     11  C   UNL     1      21.269 -44.986   6.027  0.00  0.00    +0.000 A 
ATOM     12  N   UNL     1      21.965 -44.131   5.270  0.00  0.00    +0.000 N 
ATOM     13  N   UNL     1      20.179 -45.756   5.827  0.00  0.00    +0.000 NA
ATOM     14  C   UNL     1      19.791 -46.564   6.795  0.00  0.00    +0.000 A 
ATOM     15  C   UNL     1      20.412 -46.683   7.960  0.00  0.00    +0.000 A 
ATOM     16  C   UNL     1      21.521 -45.912   8.193  0.00  0.00    +0.000 A 
BRANCH  12  17
ATOM     17  C   UNL     1      21.330 -43.645   4.039  0.00  0.00    +0.000 C 
BRANCH  17  18
ATOM     18  C   UNL     1      22.073 -42.635   3.253  0.00  0.00    +0.000 C 
BRANCH  18  19
ATOM     19  N   UNL     1      22.466 -43.354   2.015  0.00  0.00    +0.000 NA
ATOM     20  H   UNL     1      23.103 -44.177   2.358  0.00  0.00    +0.000 HD
ATOM     21  H   UNL     1      21.611 -43.828   1.657  0.00  0.00    +0.000 HD
ENDBRANCH  18  19
ENDBRANCH  17  18
ENDBRANCH  12  17
ENDBRANCH   1   9
BRANCH   7  22
ATOM     22  C   UNL     1      22.632 -41.392   8.553  0.00  0.00    +0.000 C 
ATOM     23  N   UNL     1      21.639 -41.197   7.590  0.00  0.00    +0.000 NA
ATOM     24  C   UNL     1      21.770 -40.196   6.636  0.00  0.00    +0.000 C 
ATOM     25  C   UNL     1      22.393 -38.945   7.123  0.00  0.00    +0.000 C 
ATOM     26  N   UNL     1      22.260 -38.893   8.583  0.00  0.00    +0.000 NA
ATOM     27  C   UNL     1      23.145 -39.974   9.006  0.00  0.00    +0.000 C 
ATOM     28  H   UNL     1      20.718 -41.722   7.642  0.00  0.00    +0.000 HD
BRANCH  22  29
ATOM     29  C   UNL     1      21.954 -41.852   9.814  0.00  0.00    +0.000 C 
ATOM     30  O   UNL     1      20.956 -42.612   9.837  0.00  0.00    +0.000 OA
ATOM     31  N   UNL     1      22.439 -41.510  11.164  0.00  0.00    +0.000 N 
ATOM     32  H   UNL     1      22.027 -40.900  11.822  0.00  0.00    +0.000 HD
ATOM     33  H   UNL     1      23.344 -42.010  11.469  0.00  0.00    +0.000 HD
ENDBRANCH  22  29
BRANCH  26  34
ATOM     34  C   UNL     1      20.928 -39.009   9.073  0.00  0.00    +0.000 C 
BRANCH  34  35
ATOM     35  C   UNL     1      20.097 -37.735   8.795  0.00  0.00    +0.000 C 
BRANCH  35  36
ATOM     36  C   UNL     1      18.822 -37.750   9.606  0.00  0.00    +0.000 A 
ATOM     37  C   UNL     1      18.407 -36.621  10.300  0.00  0.00    +0.000 A 
ATOM     38  C   UNL     1      17.177 -36.706  11.007  0.00  0.00    +0.000 A 
ATOM     39  C   UNL     1      16.414 -37.830  10.984  0.00  0.00    +0.000 A 
ATOM     40  C   UNL     1      16.886 -38.881  10.257  0.00  0.00    +0.000 A 
ATOM     41  C   UNL     1      18.058 -38.874   9.579  0.00  0.00    +0.000 A 
ENDBRANCH  35  36
ENDBRANCH  34  35
ENDBRANCH  26  34
ENDBRANCH   7  22
BRANCH   4  42
ATOM     42  C   UNL     1      27.163 -44.206  11.348  0.00  0.00    +0.000 A 
ATOM     43  C   UNL     1      26.362 -44.784  12.362  0.00  0.00    +0.000 A 
ATOM     44  C   UNL     1      26.981 -45.099  13.540  0.00  0.00    +0.000 A 
ATOM     45  C   UNL     1      28.336 -44.880  13.657  0.00  0.00    +0.000 A 
ATOM     46  C   UNL     1      29.142 -44.361  12.690  0.00  0.00    +0.000 A 
ATOM     47  C   UNL     1      28.533 -44.000  11.439  0.00  0.00    +0.000 A 
BRANCH  43  48
ATOM     48  O   UNL     1      25.150 -44.968  11.840  0.00  0.00    +0.000 OA
ATOM     49  C   UNL     1      23.939 -45.262  12.420  0.00  0.00    +0.000 C 
ENDBRANCH  43  48
BRANCH  47  50
ATOM     50  O   UNL     1      29.190 -43.541  10.467  0.00  0.00    +0.000 OA
ATOM     51  C   UNL     1      29.865 -43.075   9.469  0.00  0.00    +0.000 C 
ENDBRANCH  47  50
ENDBRANCH   4  42
TORSDOF 12
ENDMDL
