MODEL 1
REMARK VINA RESULT:    -7.723      0.000      0.000
REMARK INTER + INTRA:         -13.180
REMARK INTER:                 -13.817
REMARK INTRA:                   0.638
REMARK UNBOUND:                 0.638
REMARK  Name = 
REMARK  17 active torsions:
REMARK  status: ('A' for Active; 'I' for Inactive)
REMARK    1  A    between atoms: S_1  and  C_4
REMARK    2  A    between atoms: S_1  and  N_19
REMARK    3  A    between atoms: C_7  and  N_8
REMARK    4  A    between atoms: C_9  and  C_11
REMARK    5  A    between atoms: C_11  and  N_12
REMARK    6  A    between atoms: N_12  and  C_13
REMARK    7  A    between atoms: C_13  and  C_14
REMARK    8  A    between atoms: C_13  and  C_16
REMARK    9  A    between atoms: C_14  and  C_15
REMARK   10  A    between atoms: N_19  and  C_20
REMARK   11  A    between atoms: C_24  and  C_25
REMARK   12  A    between atoms: C_25  and  O_27
REMARK   13  A    between atoms: N_31  and  C_34
REMARK   14  A    between atoms: C_34  and  C_35
REMARK   15  A    between atoms: C_35  and  O_37
REMARK   16  A    between atoms: O_37  and  C_38
REMARK   17  A    between atoms: C_38  and  C_39
REMARK                            x       y       z     vdW  Elec       q    Type
REMARK                         _______ _______ _______ _____ _____    ______ ____
ROOT
ATOM      1  N   UNL     1      11.502 -40.981  11.023  0.00  0.00    +0.000 NA
ATOM      2  H   UNL     1      11.277 -40.054  10.661  0.00  0.00    +0.000 HD
ENDROOT
BRANCH   1   3
ATOM      3  C   UNL     1      12.169 -41.063  12.265  0.00  0.00    +0.000 C 
ATOM      4  C   UNL     1      12.119 -39.751  13.052  0.00  0.00    +0.000 C 
ATOM      5  O   UNL     1      12.545 -40.271  14.304  0.00  0.00    +0.000 OA
ATOM      6  C   UNL     1      11.437 -41.109  14.498  0.00  0.00    +0.000 C 
ATOM      7  C   UNL     1      11.553 -42.004  13.260  0.00  0.00    +0.000 C 
ATOM      8  C   UNL     1      10.328 -40.132  14.311  0.00  0.00    +0.000 C 
ATOM      9  C   UNL     1      10.786 -39.290  13.362  0.00  0.00    +0.000 C 
ATOM     10  C   UNL     1      13.089 -38.884  12.407  0.00  0.00    +0.000 C 
ATOM     11  N   UNL     1      14.089 -39.838  11.891  0.00  0.00    +0.000 N 
ATOM     12  C   UNL     1      13.628 -41.177  12.119  0.00  0.00    +0.000 C 
ATOM     13  O   UNL     1      14.399 -42.168  12.166  0.00  0.00    +0.000 OA
BRANCH   7  14
ATOM     14  C   UNL     1      10.167 -42.396  12.934  0.00  0.00    +0.000 C 
ATOM     15  O   UNL     1       9.468 -42.951  13.802  0.00  0.00    +0.000 OA
BRANCH  14  16
ATOM     16  O   UNL     1       9.628 -42.162  11.689  0.00  0.00    +0.000 OA
ATOM     17  H   UNL     1      10.175 -41.633  11.012  0.00  0.00    +0.000 HD
ENDBRANCH  14  16
ENDBRANCH   7  14
BRANCH  11  18
ATOM     18  C   UNL     1      15.331 -39.439  11.258  0.00  0.00    +0.000 C 
BRANCH  18  19
ATOM     19  C   UNL     1      15.263 -37.999  10.924  0.00  0.00    +0.000 C 
ATOM     20  O   UNL     1      14.600 -37.569   9.933  0.00  0.00    +0.000 OA
BRANCH  19  21
ATOM     21  O   UNL     1      15.938 -37.099  11.710  0.00  0.00    +0.000 OA
BRANCH  21  22
ATOM     22  C   UNL     1      16.573 -35.947  11.169  0.00  0.00    +0.000 C 
ATOM     23  C   UNL     1      17.993 -36.349  10.818  0.00  0.00    +0.000 C 
ENDBRANCH  21  22
ENDBRANCH  19  21
ENDBRANCH  18  19
ENDBRANCH  11  18
ENDBRANCH   1   3
BRANCH   1  24
ATOM     24  S   UNL     1      11.990 -42.153   9.905  0.00  0.00    +0.000 S 
ATOM     25  O   UNL     1      12.373 -43.401  10.696  0.00  0.00    +0.000 OA
ATOM     26  O   UNL     1      10.906 -42.568   8.959  0.00  0.00    +0.000 OA
BRANCH  24  27
ATOM     27  C   UNL     1      13.443 -41.693   9.030  0.00  0.00    +0.000 A 
ATOM     28  C   UNL     1      13.495 -40.501   8.344  0.00  0.00    +0.000 A 
ATOM     29  C   UNL     1      14.618 -40.119   7.652  0.00  0.00    +0.000 A 
ATOM     30  C   UNL     1      15.778 -40.905   7.594  0.00  0.00    +0.000 A 
ATOM     31  C   UNL     1      15.715 -42.087   8.278  0.00  0.00    +0.000 A 
ATOM     32  C   UNL     1      14.572 -42.473   8.982  0.00  0.00    +0.000 A 
BRANCH  30  33
ATOM     33  N   UNL     1      16.878 -40.413   6.860  0.00  0.00    +0.000 N 
ATOM     34  C   UNL     1      17.827 -39.464   7.282  0.00  0.00    +0.000 C 
ATOM     35  O   UNL     1      17.736 -38.978   8.411  0.00  0.00    +0.000 OA
ATOM     36  H   UNL     1      17.024 -40.785   5.877  0.00  0.00    +0.000 HD
BRANCH  34  37
ATOM     37  C   UNL     1      18.907 -39.074   6.360  0.00  0.00    +0.000 C 
BRANCH  37  38
ATOM     38  N   UNL     1      20.143 -39.717   6.451  0.00  0.00    +0.000 NA
ATOM     39  H   UNL     1      20.068 -40.703   6.144  0.00  0.00    +0.000 HD
BRANCH  38  40
ATOM     40  C   UNL     1      21.335 -39.136   6.018  0.00  0.00    +0.000 C 
ATOM     41  C   UNL     1      22.521 -40.019   5.768  0.00  0.00    +0.000 C 
BRANCH  40  42
ATOM     42  C   UNL     1      21.735 -37.889   6.802  0.00  0.00    +0.000 C 
ATOM     43  C   UNL     1      22.071 -38.312   8.220  0.00  0.00    +0.000 C 
ENDBRANCH  40  42
ENDBRANCH  38  40
ENDBRANCH  37  38
ENDBRANCH  34  37
ENDBRANCH  30  33
ENDBRANCH  24  27
ENDBRANCH   1  24
TORSDOF 14
ENDMDL
