MODEL 1
REMARK VINA RESULT:    -8.154      0.000      0.000
REMARK INTER + INTRA:         -17.055
REMARK INTER:                 -14.827
REMARK INTRA:                  -2.228
REMARK UNBOUND:                -2.228
REMARK  Name = 
REMARK  17 active torsions:
REMARK  status: ('A' for Active; 'I' for Inactive)
REMARK    1  A    between atoms: C_2  and  S_14
REMARK    2  A    between atoms: C_3  and  C_4
REMARK    3  A    between atoms: C_10  and  C_13
REMARK    4  A    between atoms: S_14  and  N_15
REMARK    5  A    between atoms: C_16  and  C_18
REMARK    6  A    between atoms: C_18  and  C_19
REMARK    7  A    between atoms: C_19  and  C_20
REMARK    8  A    between atoms: C_20  and  C_21
REMARK    9  A    between atoms: C_21  and  C_22
REMARK   10  A    between atoms: C_22  and  C_23
REMARK   11  A    between atoms: C_22  and  C_26
REMARK   12  A    between atoms: C_23  and  O_25
REMARK   13  A    between atoms: C_26  and  C_27
REMARK   14  A    between atoms: C_33  and  C_34
REMARK   15  A    between atoms: C_35  and  O_36
REMARK   16  A    between atoms: O_36  and  C_37
REMARK   17  A    between atoms: C_45  and  N_46
REMARK                            x       y       z     vdW  Elec       q    Type
REMARK                         _______ _______ _______ _____ _____    ______ ____
ROOT
ATOM      1  N   UNL     1      22.611 -42.164   7.265  0.00  0.00    +0.000 N 
ATOM      2  C   UNL     1      22.729 -40.906   7.889  0.00  0.00    +0.000 C 
ATOM      3  O   UNL     1      23.458 -40.834   8.964  0.00  0.00    +0.000 OA
ATOM      4  C   UNL     1      22.195 -42.220   5.882  0.00  0.00    +0.000 A 
ATOM      5  N   UNL     1      22.410 -41.095   5.128  0.00  0.00    +0.000 NA
ATOM      6  C   UNL     1      22.120 -41.095   3.794  0.00  0.00    +0.000 A 
ATOM      7  C   UNL     1      21.612 -42.207   3.203  0.00  0.00    +0.000 A 
ATOM      8  C   UNL     1      21.381 -43.354   3.954  0.00  0.00    +0.000 A 
ATOM      9  C   UNL     1      21.688 -43.353   5.328  0.00  0.00    +0.000 A 
ENDROOT
BRANCH   9  10
ATOM     10  C   UNL     1      21.518 -44.610   6.050  0.00  0.00    +0.000 A 
ATOM     11  C   UNL     1      20.448 -44.789   6.919  0.00  0.00    +0.000 A 
ATOM     12  C   UNL     1      20.325 -45.993   7.591  0.00  0.00    +0.000 A 
ATOM     13  C   UNL     1      21.223 -47.007   7.414  0.00  0.00    +0.000 A 
ATOM     14  C   UNL     1      22.310 -46.803   6.501  0.00  0.00    +0.000 A 
ATOM     15  C   UNL     1      22.431 -45.601   5.840  0.00  0.00    +0.000 A 
BRANCH  15  16
ATOM     16  N   UNL     1      23.491 -45.369   4.884  0.00  0.00    +0.000 N 
ATOM     17  H   UNL     1      24.404 -45.002   5.219  0.00  0.00    +0.000 HD
ATOM     18  H   UNL     1      23.382 -45.548   3.841  0.00  0.00    +0.000 HD
ENDBRANCH  15  16
BRANCH  11  19
ATOM     19  O   UNL     1      19.538 -43.786   7.094  0.00  0.00    +0.000 OA
BRANCH  19  20
ATOM     20  C   UNL     1      18.972 -43.254   8.261  0.00  0.00    +0.000 C 
ATOM     21  C   UNL     1      19.028 -41.777   8.204  0.00  0.00    +0.000 C 
ATOM     22  C   UNL     1      17.627 -41.220   8.160  0.00  0.00    +0.000 C 
ATOM     23  C   UNL     1      16.783 -42.375   8.664  0.00  0.00    +0.000 C 
ATOM     24  C   UNL     1      17.503 -43.623   8.336  0.00  0.00    +0.000 C 
ENDBRANCH  19  20
ENDBRANCH  11  19
ENDBRANCH   9  10
BRANCH   1  25
ATOM     25  S   UNL     1      22.895 -43.636   8.157  0.00  0.00    +0.000 S 
BRANCH  25  27
ATOM     26  N   UNL     1      25.287 -44.337   7.258  0.00  0.00    +0.000 NA
ATOM     27  C   UNL     1      24.550 -44.122   8.413  0.00  0.00    +0.000 A 
ATOM     28  C   UNL     1      25.140 -44.228   9.646  0.00  0.00    +0.000 A 
ATOM     29  C   UNL     1      26.510 -44.563   9.638  0.00  0.00    +0.000 A 
ATOM     30  C   UNL     1      27.256 -44.773   8.506  0.00  0.00    +0.000 A 
ATOM     31  C   UNL     1      26.591 -44.645   7.311  0.00  0.00    +0.000 A 
ATOM     32  C   UNL     1      27.385 -44.712   6.148  0.00  0.00    +0.000 A 
ATOM     33  C   UNL     1      28.715 -44.886   6.226  0.00  0.00    +0.000 A 
ATOM     34  C   UNL     1      29.385 -45.021   7.430  0.00  0.00    +0.000 A 
ATOM     35  C   UNL     1      28.642 -44.970   8.626  0.00  0.00    +0.000 A 
ATOM     36  C   UNL     1      29.616 -44.886   5.001  0.00  0.00    +0.000 C 
BRANCH  28  37
ATOM     37  C   UNL     1      24.535 -43.865  10.822  0.00  0.00    +0.000 C 
ATOM     38  N   UNL     1      23.978 -43.510  11.901  0.00  0.00    +0.000 NA
ENDBRANCH  28  37
ENDBRANCH  25  27
ENDBRANCH   1  25
BRANCH   2  39
ATOM     39  C   UNL     1      22.129 -39.629   7.504  0.00  0.00    +0.000 C 
BRANCH  39  40
ATOM     40  C   UNL     1      21.825 -38.723   8.656  0.00  0.00    +0.000 C 
BRANCH  40  41
ATOM     41  C   UNL     1      20.502 -38.784   9.286  0.00  0.00    +0.000 C 
BRANCH  41  42
ATOM     42  C   UNL     1      19.465 -37.744   9.156  0.00  0.00    +0.000 C 
BRANCH  42  43
ATOM     43  C   UNL     1      18.544 -37.481  10.271  0.00  0.00    +0.000 C 
BRANCH  43  44
ATOM     44  C   UNL     1      18.106 -36.087  10.503  0.00  0.00    +0.000 C 
ATOM     45  O   UNL     1      18.338 -35.205   9.642  0.00  0.00    +0.000 OA
BRANCH  44  46
ATOM     46  O   UNL     1      17.431 -35.692  11.660  0.00  0.00    +0.000 OA
ATOM     47  H   UNL     1      17.814 -36.176  12.512  0.00  0.00    +0.000 HD
ENDBRANCH  44  46
ENDBRANCH  43  44
BRANCH  43  48
ATOM     48  C   UNL     1      17.276 -38.318  10.279  0.00  0.00    +0.000 C 
ATOM     49  C   UNL     1      16.249 -38.027   9.256  0.00  0.00    +0.000 C 
ENDBRANCH  43  48
ENDBRANCH  42  43
ENDBRANCH  41  42
ENDBRANCH  40  41
ENDBRANCH  39  40
ENDBRANCH   2  39
TORSDOF 15
ENDMDL
