MODEL 1
REMARK VINA RESULT:    -9.573      0.000      0.000
REMARK INTER + INTRA:         -15.984
REMARK INTER:                 -14.330
REMARK INTRA:                  -1.654
REMARK UNBOUND:                -1.654
REMARK  Name = 
REMARK  12 active torsions:
REMARK  status: ('A' for Active; 'I' for Inactive)
REMARK    1  A    between atoms: S_1  and  N_4
REMARK    2  A    between atoms: S_1  and  N_26
REMARK    3  A    between atoms: C_5  and  C_6
REMARK    4  A    between atoms: C_8  and  C_21
REMARK    5  A    between atoms: C_10  and  C_12
REMARK    6  A    between atoms: C_14  and  C_15
REMARK    7  A    between atoms: C_15  and  O_17
REMARK    8  A    between atoms: N_26  and  C_27
REMARK    9  A    between atoms: N_26  and  C_28
REMARK   10  A    between atoms: C_28  and  C_29
REMARK   11  A    between atoms: C_29  and  C_30
REMARK   12  A    between atoms: N_34  and  C_39
REMARK                            x       y       z     vdW  Elec       q    Type
REMARK                         _______ _______ _______ _____ _____    ______ ____
ROOT
ATOM      1  N   UNL     1      21.717 -40.513   8.345  0.00  0.00    +0.000 NA
ATOM      2  C   UNL     1      20.599 -40.560   7.513  0.00  0.00    +0.000 C 
ATOM      3  C   UNL     1      20.654 -39.412   6.526  0.00  0.00    +0.000 C 
ATOM      4  C   UNL     1      20.965 -38.097   7.210  0.00  0.00    +0.000 C 
ATOM      5  C   UNL     1      22.174 -38.185   8.092  0.00  0.00    +0.000 C 
ATOM      6  C   UNL     1      22.057 -39.359   9.044  0.00  0.00    +0.000 C 
ENDROOT
BRANCH   2   7
ATOM      7  C   UNL     1      19.290 -40.552   8.239  0.00  0.00    +0.000 A 
ATOM      8  N   UNL     1      18.445 -41.600   8.258  0.00  0.00    +0.000 NA
ATOM      9  C   UNL     1      17.280 -41.605   8.884  0.00  0.00    +0.000 A 
ATOM     10  N   UNL     1      16.897 -40.501   9.550  0.00  0.00    +0.000 NA
ATOM     11  C   UNL     1      17.670 -39.376   9.600  0.00  0.00    +0.000 A 
ATOM     12  C   UNL     1      18.867 -39.427   8.935  0.00  0.00    +0.000 A 
ATOM     13  C   UNL     1      16.396 -42.825   8.859  0.00  0.00    +0.000 C 
BRANCH  11  14
ATOM     14  C   UNL     1      17.214 -38.212  10.324  0.00  0.00    +0.000 A 
ATOM     15  C   UNL     1      15.998 -38.125  10.949  0.00  0.00    +0.000 A 
ATOM     16  C   UNL     1      15.610 -36.970  11.642  0.00  0.00    +0.000 A 
ATOM     17  C   UNL     1      16.459 -35.893  11.704  0.00  0.00    +0.000 A 
ATOM     18  C   UNL     1      17.676 -35.964  11.086  0.00  0.00    +0.000 A 
ATOM     19  C   UNL     1      18.057 -37.116  10.398  0.00  0.00    +0.000 A 
BRANCH  16  20
ATOM     20  C   UNL     1      14.313 -36.933  12.283  0.00  0.00    +0.000 C 
ATOM     21  O   UNL     1      13.608 -37.965  12.389  0.00  0.00    +0.000 OA
BRANCH  20  22
ATOM     22  O   UNL     1      13.825 -35.748  12.795  0.00  0.00    +0.000 OA
ATOM     23  H   UNL     1      13.780 -34.931  12.210  0.00  0.00    +0.000 HD
ENDBRANCH  20  22
ENDBRANCH  16  20
ENDBRANCH  11  14
ENDBRANCH   2   7
BRANCH   1  24
ATOM     24  S   UNL     1      22.622 -41.912   8.554  0.00  0.00    +0.000 S 
ATOM     25  O   UNL     1      24.032 -41.555   8.834  0.00  0.00    +0.000 OA
ATOM     26  O   UNL     1      22.118 -42.637   9.801  0.00  0.00    +0.000 OA
BRANCH  24  27
ATOM     27  N   UNL     1      22.487 -43.040   7.272  0.00  0.00    +0.000 NA
ATOM     28  C   UNL     1      23.218 -42.569   6.139  0.00  0.00    +0.000 C 
BRANCH  27  29
ATOM     29  C   UNL     1      22.619 -44.400   7.604  0.00  0.00    +0.000 C 
BRANCH  29  30
ATOM     30  C   UNL     1      21.421 -45.284   7.366  0.00  0.00    +0.000 C 
ATOM     31  C   UNL     1      21.439 -46.465   8.264  0.00  0.00    +0.000 C 
ATOM     32  N   UNL     1      20.451 -47.446   8.005  0.00  0.00    +0.000 NA
ATOM     33  C   UNL     1      19.156 -47.241   8.514  0.00  0.00    +0.000 C 
ATOM     34  C   UNL     1      18.470 -45.977   8.100  0.00  0.00    +0.000 C 
ATOM     35  N   UNL     1      19.263 -44.847   8.504  0.00  0.00    +0.000 NA
ATOM     36  C   UNL     1      20.143 -44.481   7.454  0.00  0.00    +0.000 C 
ATOM     37  C   UNL     1      20.658 -48.388   6.989  0.00  0.00    +0.000 C 
ATOM     38  H   UNL     1      19.642 -45.000   9.434  0.00  0.00    +0.000 HD
BRANCH  30  39
ATOM     39  C   UNL     1      21.531 -45.731   5.945  0.00  0.00    +0.000 C 
ATOM     40  O   UNL     1      22.582 -46.185   5.445  0.00  0.00    +0.000 OA
ATOM     41  N   UNL     1      20.377 -45.634   5.128  0.00  0.00    +0.000 N 
ATOM     42  H   UNL     1      20.188 -46.304   4.346  0.00  0.00    +0.000 HD
ATOM     43  H   UNL     1      19.709 -44.858   5.337  0.00  0.00    +0.000 HD
ENDBRANCH  30  39
ENDBRANCH  29  30
ENDBRANCH  27  29
ENDBRANCH  24  27
ENDBRANCH   1  24
TORSDOF 9
ENDMDL
