MODEL 1
REMARK VINA RESULT:    -9.028      0.000      0.000
REMARK INTER + INTRA:         -15.887
REMARK INTER:                 -14.306
REMARK INTRA:                  -1.581
REMARK UNBOUND:                -1.581
REMARK  Name = 
REMARK  17 active torsions:
REMARK  status: ('A' for Active; 'I' for Inactive)
REMARK    1  A    between atoms: C_1  and  C_10
REMARK    2  A    between atoms: C_2  and  C_6
REMARK    3  A    between atoms: C_6  and  C_7
REMARK    4  A    between atoms: C_6  and  C_8
REMARK    5  A    between atoms: C_6  and  C_9
REMARK    6  A    between atoms: C_10  and  N_11
REMARK    7  A    between atoms: N_11  and  C_12
REMARK    8  A    between atoms: C_12  and  C_13
REMARK    9  A    between atoms: C_12  and  C_20
REMARK   10  A    between atoms: C_18  and  C_19
REMARK   11  A    between atoms: C_20  and  C_21
REMARK   12  A    between atoms: C_24  and  C_33
REMARK   13  A    between atoms: C_25  and  C_31
REMARK   14  A    between atoms: C_26  and  C_30
REMARK   15  A    between atoms: C_28  and  C_29
REMARK   16  A    between atoms: C_31  and  N_32
REMARK   17  A    between atoms: C_33  and  O_35
REMARK                            x       y       z     vdW  Elec       q    Type
REMARK                         _______ _______ _______ _____ _____    ______ ____
ROOT
ATOM      1  C   UNL     1      17.153 -37.796   9.764  0.00  0.00    +0.000 C 
ENDROOT
BRANCH   1   2
ATOM      2  C   UNL     1      16.981 -36.366  10.014  0.00  0.00    +0.000 A 
ATOM      3  N   UNL     1      17.634 -35.457   9.279  0.00  0.00    +0.000 NA
ATOM      4  C   UNL     1      17.416 -34.137   9.369  0.00  0.00    +0.000 A 
ATOM      5  C   UNL     1      16.474 -33.638  10.257  0.00  0.00    +0.000 A 
ATOM      6  C   UNL     1      15.790 -34.555  11.023  0.00  0.00    +0.000 A 
ATOM      7  C   UNL     1      16.035 -35.902  10.906  0.00  0.00    +0.000 A 
ATOM      8  C   UNL     1      15.362 -36.870  11.794  0.00  0.00    +0.000 C 
ENDBRANCH   1   2
BRANCH   1   9
ATOM      9  N   UNL     1      16.604 -38.222   8.499  0.00  0.00    +0.000 NA
ATOM     10  H   UNL     1      17.253 -38.781   7.925  0.00  0.00    +0.000 HD
BRANCH   9  11
ATOM     11  C   UNL     1      15.263 -38.636   8.382  0.00  0.00    +0.000 C 
BRANCH  11  12
ATOM     12  C   UNL     1      15.215 -40.138   8.284  0.00  0.00    +0.000 A 
ATOM     13  C   UNL     1      14.854 -41.080   9.159  0.00  0.00    +0.000 A 
ATOM     14  N   UNL     1      15.231 -42.293   8.604  0.00  0.00    +0.000 NA
ATOM     15  N   UNL     1      15.786 -42.098   7.449  0.00  0.00    +0.000 N 
ATOM     16  C   UNL     1      15.794 -40.783   7.217  0.00  0.00    +0.000 A 
ATOM     17  H   UNL     1      16.164 -42.825   6.817  0.00  0.00    +0.000 HD
BRANCH  13  18
ATOM     18  C   UNL     1      14.076 -40.952  10.401  0.00  0.00    +0.000 C 
ATOM     19  C   UNL     1      12.801 -40.114  10.210  0.00  0.00    +0.000 C 
ATOM     20  C   UNL     1      14.843 -40.489  11.600  0.00  0.00    +0.000 C 
ATOM     21  C   UNL     1      13.554 -42.358  10.761  0.00  0.00    +0.000 C 
ENDBRANCH  13  18
ENDBRANCH  11  12
ENDBRANCH   9  11
ENDBRANCH   1   9
BRANCH   1  22
ATOM     22  C   UNL     1      18.609 -38.212   9.680  0.00  0.00    +0.000 C 
BRANCH  22  23
ATOM     23  C   UNL     1      19.047 -39.548   9.340  0.00  0.00    +0.000 C 
ATOM     24  C   UNL     1      18.500 -40.738   9.726  0.00  0.00    +0.000 C 
ATOM     25  S   UNL     1      19.676 -41.679   8.814  0.00  0.00    +0.000 S 
ATOM     26  C   UNL     1      20.290 -39.993   8.643  0.00  0.00    +0.000 C 
ATOM     27  C   UNL     1      20.557 -39.696   7.255  0.00  0.00    +0.000 C 
ATOM     28  C   UNL     1      21.391 -40.247   6.383  0.00  0.00    +0.000 C 
ATOM     29  O   UNL     1      22.312 -41.327   6.491  0.00  0.00    +0.000 OA
ATOM     30  C   UNL     1      22.190 -42.717   6.735  0.00  0.00    +0.000 C 
ATOM     31  C   UNL     1      23.223 -43.536   6.033  0.00  0.00    +0.000 C 
ATOM     32  C   UNL     1      21.351 -39.598   5.051  0.00  0.00    +0.000 C 
ATOM     33  C   UNL     1      20.227 -43.102   8.287  0.00  0.00    +0.000 C 
ATOM     34  C   UNL     1      21.381 -43.493   7.441  0.00  0.00    +0.000 C 
BRANCH  26  35
ATOM     35  C   UNL     1      21.478 -39.895   9.561  0.00  0.00    +0.000 C 
ATOM     36  O   UNL     1      22.204 -38.894   9.445  0.00  0.00    +0.000 OA
BRANCH  35  37
ATOM     37  O   UNL     1      21.810 -40.820  10.503  0.00  0.00    +0.000 OA
ATOM     38  H   UNL     1      21.763 -40.609  11.508  0.00  0.00    +0.000 HD
ENDBRANCH  35  37
ENDBRANCH  26  35
BRANCH  27  39
ATOM     39  C   UNL     1      19.786 -38.597   6.644  0.00  0.00    +0.000 C 
BRANCH  39  40
ATOM     40  N   UNL     1      18.474 -39.080   6.182  0.00  0.00    +0.000 NA
ATOM     41  H   UNL     1      17.765 -38.346   6.114  0.00  0.00    +0.000 HD
ATOM     42  H   UNL     1      18.168 -39.921   6.727  0.00  0.00    +0.000 HD
ENDBRANCH  39  40
ENDBRANCH  27  39
ENDBRANCH  22  23
ENDBRANCH   1  22
TORSDOF 11
ENDMDL
