MODEL 1
REMARK VINA RESULT:   -10.504      0.000      0.000
REMARK INTER + INTRA:         -16.537
REMARK INTER:                 -14.802
REMARK INTRA:                  -1.735
REMARK UNBOUND:                -1.735
REMARK  Name = 
REMARK  8 active torsions:
REMARK  status: ('A' for Active; 'I' for Inactive)
REMARK    1  A    between atoms: N_3  and  C_22
REMARK    2  A    between atoms: C_7  and  C_8
REMARK    3  A    between atoms: C_8  and  C_9
REMARK    4  A    between atoms: C_10  and  C_11
REMARK    5  A    between atoms: C_22  and  N_23
REMARK    6  A    between atoms: C_24  and  C_38
REMARK    7  A    between atoms: C_31  and  O_33
REMARK    8  A    between atoms: O_33  and  C_34
REMARK                            x       y       z     vdW  Elec       q    Type
REMARK                         _______ _______ _______ _____ _____    ______ ____
ROOT
ATOM      1  C   UNL     1      17.271 -41.064   9.481  0.00  0.00    +0.000 C 
ATOM      2  O   UNL     1      18.270 -40.410   9.809  0.00  0.00    +0.000 OA
ATOM      3  N   UNL     1      15.979 -40.642   9.825  0.00  0.00    +0.000 N 
ATOM      4  C   UNL     1      14.892 -41.057   8.972  0.00  0.00    +0.000 C 
ATOM      5  C   UNL     1      15.529 -41.479   7.641  0.00  0.00    +0.000 C 
ATOM      6  N   UNL     1      16.335 -42.649   7.920  0.00  0.00    +0.000 NA
ATOM      7  C   UNL     1      17.498 -42.337   8.693  0.00  0.00    +0.000 C 
ATOM      8  H   UNL     1      15.776 -43.436   8.324  0.00  0.00    +0.000 HD
ENDROOT
BRANCH   7   9
ATOM      9  C   UNL     1      18.678 -42.124   7.817  0.00  0.00    +0.000 C 
BRANCH   9  10
ATOM     10  C   UNL     1      19.914 -42.815   8.192  0.00  0.00    +0.000 A 
ATOM     11  C   UNL     1      21.122 -42.182   8.118  0.00  0.00    +0.000 A 
ATOM     12  C   UNL     1      22.283 -42.934   8.432  0.00  0.00    +0.000 A 
ATOM     13  C   UNL     1      22.183 -44.247   8.797  0.00  0.00    +0.000 A 
ATOM     14  C   UNL     1      20.952 -44.878   8.870  0.00  0.00    +0.000 A 
ATOM     15  C   UNL     1      19.821 -44.176   8.572  0.00  0.00    +0.000 A 
BRANCH  11  16
ATOM     16  C   UNL     1      21.364 -40.780   7.807  0.00  0.00    +0.000 A 
ATOM     17  C   UNL     1      21.489 -40.226   6.573  0.00  0.00    +0.000 A 
ATOM     18  C   UNL     1      21.721 -38.861   6.383  0.00  0.00    +0.000 A 
ATOM     19  C   UNL     1      21.832 -38.019   7.463  0.00  0.00    +0.000 A 
ATOM     20  C   UNL     1      21.709 -38.556   8.727  0.00  0.00    +0.000 A 
ATOM     21  C   UNL     1      21.479 -39.903   8.895  0.00  0.00    +0.000 A 
ATOM     22  F   UNL     1      22.061 -36.678   7.286  0.00  0.00    +0.000 F 
ENDBRANCH  11  16
ENDBRANCH   9  10
ENDBRANCH   7   9
BRANCH   3  23
ATOM     23  C   UNL     1      15.768 -39.838  10.986  0.00  0.00    +0.000 C 
BRANCH  23  24
ATOM     24  N   UNL     1      14.954 -38.659  10.737  0.00  0.00    +0.000 N 
ATOM     25  C   UNL     1      13.506 -38.699  10.744  0.00  0.00    +0.000 C 
ATOM     26  C   UNL     1      12.989 -37.345  10.459  0.00  0.00    +0.000 C 
ATOM     27  C   UNL     1      13.681 -36.244  11.277  0.00  0.00    +0.000 C 
ATOM     28  C   UNL     1      15.053 -36.201  10.742  0.00  0.00    +0.000 A 
ATOM     29  C   UNL     1      15.658 -37.435  10.473  0.00  0.00    +0.000 A 
ATOM     30  C   UNL     1      16.933 -37.377   9.959  0.00  0.00    +0.000 A 
ATOM     31  C   UNL     1      17.597 -36.196   9.716  0.00  0.00    +0.000 A 
ATOM     32  C   UNL     1      16.970 -35.009   9.995  0.00  0.00    +0.000 A 
ATOM     33  C   UNL     1      15.692 -35.004  10.510  0.00  0.00    +0.000 A 
ATOM     34  O   UNL     1      12.908 -35.153  10.896  0.00  0.00    +0.000 OA
ATOM     35  C   UNL     1      11.584 -35.537  10.875  0.00  0.00    +0.000 C 
ATOM     36  C   UNL     1      11.571 -37.069  10.809  0.00  0.00    +0.000 C 
BRANCH  25  37
ATOM     37  C   UNL     1      12.932 -39.331  11.953  0.00  0.00    +0.000 A 
ATOM     38  C   UNL     1      12.253 -40.521  11.859  0.00  0.00    +0.000 A 
ATOM     39  C   UNL     1      11.741 -41.088  13.002  0.00  0.00    +0.000 A 
ATOM     40  N   UNL     1      11.907 -40.479  14.177  0.00  0.00    +0.000 NA
ATOM     41  C   UNL     1      12.554 -39.324  14.343  0.00  0.00    +0.000 A 
ATOM     42  C   UNL     1      13.072 -38.749  13.190  0.00  0.00    +0.000 A 
ENDBRANCH  25  37
BRANCH  32  43
ATOM     43  O   UNL     1      17.575 -33.775   9.776  0.00  0.00    +0.000 OA
ATOM     44  C   UNL     1      16.867 -32.643   9.348  0.00  0.00    +0.000 C 
ENDBRANCH  32  43
ENDBRANCH  23  24
ENDBRANCH   3  23
TORSDOF 7
ENDMDL
