MODEL 1
REMARK VINA RESULT:    -7.111      0.000      0.000
REMARK INTER + INTRA:          -9.139
REMARK INTER:                 -10.021
REMARK INTRA:                   0.883
REMARK UNBOUND:                 0.883
REMARK  Name = 
REMARK  10 active torsions:
REMARK  status: ('A' for Active; 'I' for Inactive)
REMARK    1  A    between atoms: C_3  and  N_19
REMARK    2  A    between atoms: C_4  and  C_15
REMARK    3  A    between atoms: N_7  and  C_9
REMARK    4  A    between atoms: C_15  and  C_16
REMARK    5  A    between atoms: C_16  and  N_17
REMARK    6  A    between atoms: C_16  and  C_18
REMARK    7  A    between atoms: C_20  and  C_22
REMARK    8  A    between atoms: C_22  and  C_23
REMARK    9  A    between atoms: C_23  and  C_24
REMARK   10  A    between atoms: C_24  and  O_26
REMARK                            x       y       z     vdW  Elec       q    Type
REMARK                         _______ _______ _______ _____ _____    ______ ____
ROOT
ATOM      1  C   UNL     1      21.390 -42.959   8.900  0.00  0.00    +0.000 C 
ATOM      2  C   UNL     1      21.922 -42.219   9.796  0.00  0.00    +0.000 C 
ATOM      3  C   UNL     1      21.822 -41.040   8.981  0.00  0.00    +0.000 C 
ATOM      4  C   UNL     1      21.172 -41.837   7.997  0.00  0.00    +0.000 C 
ATOM      5  C   UNL     1      21.840 -41.924   6.663  0.00  0.00    +0.000 A 
ATOM      6  C   UNL     1      22.876 -42.731   6.290  0.00  0.00    +0.000 A 
ATOM      7  N   UNL     1      23.605 -43.665   7.080  0.00  0.00    +0.000 N 
ATOM      8  C   UNL     1      24.253 -43.520   8.337  0.00  0.00    +0.000 C 
ATOM      9  C   UNL     1      23.747 -45.011   6.437  0.00  0.00    +0.000 C 
ATOM     10  C   UNL     1      23.322 -42.641   4.937  0.00  0.00    +0.000 A 
ATOM     11  C   UNL     1      22.780 -41.801   4.005  0.00  0.00    +0.000 A 
ATOM     12  C   UNL     1      21.742 -40.995   4.393  0.00  0.00    +0.000 A 
ATOM     13  C   UNL     1      21.298 -41.076   5.714  0.00  0.00    +0.000 A 
ATOM     14  F   UNL     1      21.179 -40.146   3.493  0.00  0.00    +0.000 F 
ATOM     15  C   UNL     1      23.133 -40.422   8.565  0.00  0.00    +0.000 C 
ATOM     16  C   UNL     1      24.291 -41.045   8.585  0.00  0.00    +0.000 C 
ATOM     17  C   UNL     1      24.558 -42.420   8.991  0.00  0.00    +0.000 C 
ATOM     18 BR   UNL     1      25.601 -42.699  10.648  0.00  0.00    +0.000 Br
ATOM     19 CL   UNL     1      21.003 -44.713   8.834  0.00  0.00    +0.000 Cl
ENDROOT
BRANCH   3  20
ATOM     20  N   UNL     1      20.964 -40.081   9.653  0.00  0.00    +0.000 N 
ATOM     21  C   UNL     1      20.684 -38.812   9.076  0.00  0.00    +0.000 C 
ATOM     22  O   UNL     1      21.164 -38.461   7.962  0.00  0.00    +0.000 OA
ATOM     23  H   UNL     1      20.542 -40.319  10.550  0.00  0.00    +0.000 HD
BRANCH  21  24
ATOM     24  C   UNL     1      19.806 -37.843   9.773  0.00  0.00    +0.000 C 
BRANCH  24  25
ATOM     25  C   UNL     1      18.419 -38.425   9.862  0.00  0.00    +0.000 C 
BRANCH  25  26
ATOM     26  C   UNL     1      17.377 -37.378   9.951  0.00  0.00    +0.000 C 
ATOM     27  O   UNL     1      16.828 -37.167  11.046  0.00  0.00    +0.000 OA
BRANCH  26  28
ATOM     28  O   UNL     1      17.066 -36.680   8.793  0.00  0.00    +0.000 OA
ATOM     29  H   UNL     1      17.698 -36.754   7.985  0.00  0.00    +0.000 HD
ENDBRANCH  26  28
ENDBRANCH  25  26
ENDBRANCH  24  25
ENDBRANCH  21  24
ENDBRANCH   3  20
BRANCH   4  30
ATOM     30  C   UNL     1      19.680 -41.576   7.875  0.00  0.00    +0.000 C 
BRANCH  30  31
ATOM     31  C   UNL     1      18.822 -42.790   7.982  0.00  0.00    +0.000 C 
ATOM     32  C   UNL     1      17.567 -42.348   8.750  0.00  0.00    +0.000 C 
BRANCH  31  33
ATOM     33  N   UNL     1      18.463 -43.382   6.725  0.00  0.00    +0.000 NA
ATOM     34  H   UNL     1      17.722 -44.107   6.915  0.00  0.00    +0.000 HD
ATOM     35  H   UNL     1      19.258 -43.917   6.282  0.00  0.00    +0.000 HD
ENDBRANCH  31  33
ENDBRANCH  30  31
ENDBRANCH   4  30
TORSDOF 8
ENDMDL
