MODEL 1
REMARK VINA RESULT:    -9.121      0.000      0.000
REMARK INTER + INTRA:         -16.767
REMARK INTER:                 -14.719
REMARK INTRA:                  -2.049
REMARK UNBOUND:                -2.049
REMARK  Name = 
REMARK  13 active torsions:
REMARK  status: ('A' for Active; 'I' for Inactive)
REMARK    1  A    between atoms: C_7  and  C_8
REMARK    2  A    between atoms: C_8  and  O_10
REMARK    3  A    between atoms: O_10  and  C_11
REMARK    4  A    between atoms: C_11  and  C_12
REMARK    5  A    between atoms: C_16  and  C_18
REMARK    6  A    between atoms: C_20  and  N_25
REMARK    7  A    between atoms: C_22  and  N_24
REMARK    8  A    between atoms: N_25  and  N_26
REMARK    9  A    between atoms: N_26  and  C_27
REMARK   10  A    between atoms: C_27  and  N_29
REMARK   11  A    between atoms: N_29  and  C_30
REMARK   12  A    between atoms: C_30  and  C_31
REMARK   13  A    between atoms: C_36  and  C_39
REMARK                            x       y       z     vdW  Elec       q    Type
REMARK                         _______ _______ _______ _____ _____    ______ ____
ROOT
ATOM      1  C   UNL     1      16.338 -36.182  11.111  0.00  0.00    +0.000 A 
ATOM      2  C   UNL     1      15.377 -36.800  11.858  0.00  0.00    +0.000 A 
ATOM      3  C   UNL     1      14.254 -36.109  12.322  0.00  0.00    +0.000 A 
ATOM      4  C   UNL     1      14.108 -34.789  12.025  0.00  0.00    +0.000 A 
ATOM      5  C   UNL     1      15.080 -34.128  11.261  0.00  0.00    +0.000 A 
ATOM      6  C   UNL     1      16.161 -34.827  10.825  0.00  0.00    +0.000 A 
ENDROOT
BRANCH   1  17
ATOM      7  C   UNL     1      18.653 -38.678   9.410  0.00  0.00    +0.000 A 
ATOM      8  N   UNL     1      19.822 -38.586   9.405  0.00  0.00    +0.000 NA
ATOM      9  C   UNL     1      20.724 -39.367   8.880  0.00  0.00    +0.000 A 
ATOM     10  C   UNL     1      20.245 -40.483   8.220  0.00  0.00    +0.000 A 
ATOM     11  S   UNL     1      18.484 -40.288   8.431  0.00  0.00    +0.000 S 
ATOM     12  C   UNL     1      21.047 -41.420   7.611  0.00  0.00    +0.000 A 
ATOM     13  C   UNL     1      22.436 -41.272   7.639  0.00  0.00    +0.000 A 
ATOM     14  C   UNL     1      22.923 -40.169   8.291  0.00  0.00    +0.000 A 
ATOM     15  C   UNL     1      22.113 -39.246   8.892  0.00  0.00    +0.000 A 
ATOM     16  N   UNL     1      17.429 -38.055   9.864  0.00  0.00    +0.000 N 
ATOM     17  C   UNL     1      17.519 -36.834  10.588  0.00  0.00    +0.000 C 
ATOM     18  O   UNL     1      18.673 -36.355  10.752  0.00  0.00    +0.000 OA
ATOM     19  H   UNL     1      16.501 -38.462   9.711  0.00  0.00    +0.000 HD
BRANCH  13  20
ATOM     20  C   UNL     1      23.253 -42.274   6.986  0.00  0.00    +0.000 C 
ATOM     21  O   UNL     1      24.141 -42.929   7.619  0.00  0.00    +0.000 OA
BRANCH  20  22
ATOM     22  O   UNL     1      23.114 -42.576   5.633  0.00  0.00    +0.000 OA
BRANCH  22  23
ATOM     23  C   UNL     1      23.354 -41.608   4.620  0.00  0.00    +0.000 C 
ATOM     24  C   UNL     1      22.059 -41.280   3.885  0.00  0.00    +0.000 C 
ENDBRANCH  22  23
ENDBRANCH  20  22
ENDBRANCH  13  20
ENDBRANCH   1  17
BRANCH   5  25
ATOM     25  N   UNL     1      14.912 -32.741  10.964  0.00  0.00    +0.000 N 
ATOM     26  H   UNL     1      14.085 -32.417  10.390  0.00  0.00    +0.000 HD
ATOM     27  H   UNL     1      15.607 -32.082  11.321  0.00  0.00    +0.000 HD
ENDBRANCH   5  25
BRANCH   3  28
ATOM     28  N   UNL     1      13.265 -36.777  13.110  0.00  0.00    +0.000 N 
ATOM     29  H   UNL     1      13.071 -36.463  14.095  0.00  0.00    +0.000 HD
BRANCH  28  30
ATOM     30  N   UNL     1      12.574 -37.844  12.539  0.00  0.00    +0.000 N 
ATOM     31  C   UNL     1      12.312 -39.028  13.317  0.00  0.00    +0.000 A 
ATOM     32  N   UNL     1      11.601 -40.053  12.791  0.00  0.00    +0.000 NA
ATOM     33  C   UNL     1      11.321 -41.168  13.477  0.00  0.00    +0.000 A 
ATOM     34  C   UNL     1      11.762 -41.325  14.792  0.00  0.00    +0.000 A 
ATOM     35  C   UNL     1      12.483 -40.277  15.317  0.00  0.00    +0.000 A 
ATOM     36  C   UNL     1      12.772 -39.121  14.607  0.00  0.00    +0.000 A 
ATOM     37  C   UNL     1      11.454 -42.540  15.550  0.00  0.00    +0.000 C 
BRANCH  30  38
ATOM     38  C   UNL     1      12.096 -37.776  11.207  0.00  0.00    +0.000 C 
ATOM     39  S   UNL     1      11.127 -36.518  10.782  0.00  0.00    +0.000 S 
BRANCH  38  40
ATOM     40  N   UNL     1      12.446 -38.782  10.252  0.00  0.00    +0.000 N 
ATOM     41  H   UNL     1      11.699 -39.361   9.850  0.00  0.00    +0.000 HD
BRANCH  40  42
ATOM     42  C   UNL     1      13.825 -39.002   9.839  0.00  0.00    +0.000 C 
BRANCH  42  43
ATOM     43  C   UNL     1      14.212 -40.355  10.336  0.00  0.00    +0.000 C 
ATOM     44  C   UNL     1      15.064 -40.499  11.304  0.00  0.00    +0.000 C 
ENDBRANCH  42  43
ENDBRANCH  40  42
ENDBRANCH  38  40
ENDBRANCH  30  38
ENDBRANCH  28  30
ENDBRANCH   3  28
TORSDOF 11
ENDMDL
