MODEL 1
REMARK VINA RESULT:    -8.314      0.000      0.000
REMARK INTER + INTRA:         -15.306
REMARK INTER:                 -15.361
REMARK INTRA:                   0.055
REMARK UNBOUND:                 0.055
REMARK  Name = 
REMARK  19 active torsions:
REMARK  status: ('A' for Active; 'I' for Inactive)
REMARK    1  A    between atoms: C_2  and  C_6
REMARK    2  A    between atoms: C_6  and  C_7
REMARK    3  A    between atoms: C_7  and  N_8
REMARK    4  A    between atoms: N_8  and  C_9
REMARK    5  A    between atoms: N_12  and  C_23
REMARK    6  A    between atoms: C_17  and  C_18
REMARK    7  A    between atoms: C_18  and  O_20
REMARK    8  A    between atoms: C_28  and  C_29
REMARK    9  A    between atoms: C_30  and  O_44
REMARK   10  A    between atoms: C_32  and  C_37
REMARK   11  A    between atoms: C_34  and  O_35
REMARK   12  A    between atoms: O_35  and  C_36
REMARK   13  A    between atoms: C_37  and  N_38
REMARK   14  A    between atoms: N_38  and  C_39
REMARK   15  A    between atoms: C_39  and  C_40
REMARK   16  A    between atoms: C_39  and  C_42
REMARK   17  A    between atoms: C_40  and  C_41
REMARK   18  A    between atoms: C_42  and  C_43
REMARK   19  A    between atoms: O_44  and  C_45
REMARK                            x       y       z     vdW  Elec       q    Type
REMARK                         _______ _______ _______ _____ _____    ______ ____
ROOT
ATOM      1  C   UNL     1      13.697 -40.548   9.660  0.00  0.00    +0.000 C 
ATOM      2  C   UNL     1      15.075 -40.710   9.976  0.00  0.00    +0.000 C 
ATOM      3  O   UNL     1      15.574 -40.904  11.107  0.00  0.00    +0.000 OA
ATOM      4  N   UNL     1      15.859 -40.610   8.743  0.00  0.00    +0.000 N 
ATOM      5  C   UNL     1      14.890 -40.643   7.649  0.00  0.00    +0.000 C 
ATOM      6  C   UNL     1      13.713 -41.154   8.253  0.00  0.00    +0.000 C 
ATOM      7  O   UNL     1      12.429 -40.906   7.939  0.00  0.00    +0.000 OA
ATOM      8  C   UNL     1      11.860 -41.747   8.936  0.00  0.00    +0.000 C 
ATOM      9  C   UNL     1      12.647 -41.468  10.221  0.00  0.00    +0.000 C 
ATOM     10  C   UNL     1      12.477 -43.030   8.422  0.00  0.00    +0.000 C 
ATOM     11  C   UNL     1      13.755 -42.660   8.354  0.00  0.00    +0.000 C 
ENDROOT
BRANCH   4  12
ATOM     12  C   UNL     1      17.247 -40.408   8.636  0.00  0.00    +0.000 C 
ATOM     13  C   UNL     1      17.696 -39.771   7.341  0.00  0.00    +0.000 C 
ATOM     14  C   UNL     1      18.732 -38.701   7.683  0.00  0.00    +0.000 C 
ATOM     15  C   UNL     1      19.363 -39.002   9.009  0.00  0.00    +0.000 C 
ATOM     16  C   UNL     1      19.421 -40.359   9.527  0.00  0.00    +0.000 C 
ATOM     17  C   UNL     1      18.287 -41.330   9.155  0.00  0.00    +0.000 C 
BRANCH  17  18
ATOM     18  C   UNL     1      18.870 -42.372   8.304  0.00  0.00    +0.000 A 
ATOM     19  C   UNL     1      18.140 -43.556   8.027  0.00  0.00    +0.000 A 
ATOM     20  C   UNL     1      18.698 -44.510   7.198  0.00  0.00    +0.000 A 
ATOM     21  C   UNL     1      19.939 -44.350   6.632  0.00  0.00    +0.000 A 
ATOM     22  C   UNL     1      20.636 -43.213   6.901  0.00  0.00    +0.000 A 
ATOM     23  C   UNL     1      20.108 -42.210   7.742  0.00  0.00    +0.000 A 
BRANCH  23  24
ATOM     24  O   UNL     1      20.955 -41.127   7.908  0.00  0.00    +0.000 OA
ATOM     25  C   UNL     1      22.132 -40.900   7.217  0.00  0.00    +0.000 C 
ENDBRANCH  23  24
BRANCH  19  26
ATOM     26  O   UNL     1      16.911 -43.722   8.597  0.00  0.00    +0.000 OA
ATOM     27  C   UNL     1      16.223 -44.925   8.647  0.00  0.00    +0.000 C 
ENDBRANCH  19  26
BRANCH  21  28
ATOM     28  C   UNL     1      20.456 -45.474   5.768  0.00  0.00    +0.000 C 
BRANCH  28  29
ATOM     29  N   UNL     1      19.456 -46.384   5.439  0.00  0.00    +0.000 NA
ATOM     30  H   UNL     1      18.470 -45.999   5.508  0.00  0.00    +0.000 HD
BRANCH  29  31
ATOM     31  C   UNL     1      19.543 -47.761   5.624  0.00  0.00    +0.000 C 
BRANCH  31  32
ATOM     32  C   UNL     1      20.839 -48.380   5.998  0.00  0.00    +0.000 C 
ATOM     33  C   UNL     1      21.692 -49.010   4.978  0.00  0.00    +0.000 C 
ENDBRANCH  31  32
BRANCH  31  34
ATOM     34  C   UNL     1      18.354 -48.353   6.330  0.00  0.00    +0.000 C 
ATOM     35  C   UNL     1      18.278 -48.230   7.793  0.00  0.00    +0.000 C 
ENDBRANCH  31  34
ENDBRANCH  29  31
ENDBRANCH  28  29
ENDBRANCH  21  28
ENDBRANCH  17  18
ENDBRANCH   4  12
BRANCH   1  36
ATOM     36  N   UNL     1      13.137 -39.256   9.752  0.00  0.00    +0.000 NA
ATOM     37  H   UNL     1      12.385 -39.172   9.033  0.00  0.00    +0.000 HD
BRANCH  36  38
ATOM     38  C   UNL     1      12.745 -38.705  10.976  0.00  0.00    +0.000 C 
BRANCH  38  39
ATOM     39  C   UNL     1      13.007 -37.181  10.932  0.00  0.00    +0.000 C 
BRANCH  39  41
ATOM     40  N   UNL     1      15.567 -37.551  10.862  0.00  0.00    +0.000 NA
ATOM     41  C   UNL     1      14.448 -36.895  10.993  0.00  0.00    +0.000 A 
ATOM     42  S   UNL     1      15.090 -35.247  11.332  0.00  0.00    +0.000 S 
ATOM     43  C   UNL     1      16.912 -35.721  11.240  0.00  0.00    +0.000 A 
ATOM     44  C   UNL     1      16.725 -37.046  10.968  0.00  0.00    +0.000 A 
ENDBRANCH  39  41
ENDBRANCH  38  39
ENDBRANCH  36  38
ENDBRANCH   1  36
BRANCH   9  45
ATOM     45  C   UNL     1      13.102 -42.663  10.900  0.00  0.00    +0.000 C 
ATOM     46  O   UNL     1      12.231 -43.436  11.441  0.00  0.00    +0.000 OA
BRANCH  45  47
ATOM     47  O   UNL     1      14.409 -43.100  11.052  0.00  0.00    +0.000 OA
ATOM     48  H   UNL     1      14.691 -43.974  10.581  0.00  0.00    +0.000 HD
ENDBRANCH  45  47
ENDBRANCH   9  45
TORSDOF 15
ENDMDL
