MODEL 1
REMARK VINA RESULT:    -9.347      0.000      0.000
REMARK INTER + INTRA:         -15.209
REMARK INTER:                 -13.718
REMARK INTRA:                  -1.491
REMARK UNBOUND:                -1.491
REMARK  Name = 
REMARK  9 active torsions:
REMARK  status: ('A' for Active; 'I' for Inactive)
REMARK    1  A    between atoms: C_1  and  C_2
REMARK    2  A    between atoms: N_4  and  C_5
REMARK    3  A    between atoms: N_4  and  C_15
REMARK    4  A    between atoms: C_22  and  C_25
REMARK    5  A    between atoms: C_25  and  N_26
REMARK    6  A    between atoms: C_28  and  C_29
REMARK    7  A    between atoms: C_29  and  O_30
REMARK    8  A    between atoms: O_30  and  C_31
REMARK    9  A    between atoms: C_33  and  C_37
REMARK                            x       y       z     vdW  Elec       q    Type
REMARK                         _______ _______ _______ _____ _____    ______ ____
ROOT
ATOM      1  C   UNL     1      15.251 -43.781   9.041  0.00  0.00    +0.000 A 
ATOM      2  N   UNL     1      14.739 -43.389  10.221  0.00  0.00    +0.000 NA
ATOM      3  C   UNL     1      13.438 -43.095  10.102  0.00  0.00    +0.000 A 
ATOM      4  O   UNL     1      13.140 -43.305   8.833  0.00  0.00    +0.000 OA
ATOM      5  C   UNL     1      14.192 -43.715   8.167  0.00  0.00    +0.000 A 
ENDROOT
BRANCH   1   6
ATOM      6  C   UNL     1      16.596 -44.192   8.684  0.00  0.00    +0.000 C 
ATOM      7  O   UNL     1      16.880 -45.414   8.666  0.00  0.00    +0.000 OA
ATOM      8  N   UNL     1      17.623 -43.270   8.349  0.00  0.00    +0.000 N 
BRANCH   8   9
ATOM      9  C   UNL     1      18.947 -43.628   7.986  0.00  0.00    +0.000 C 
ATOM     10  C   UNL     1      19.072 -44.307   6.637  0.00  0.00    +0.000 C 
ATOM     11  C   UNL     1      20.573 -44.116   6.411  0.00  0.00    +0.000 C 
ATOM     12  O   UNL     1      20.940 -42.985   7.076  0.00  0.00    +0.000 OA
ATOM     13  C   UNL     1      19.895 -42.469   7.789  0.00  0.00    +0.000 C 
ATOM     14  C   UNL     1      21.233 -45.332   7.074  0.00  0.00    +0.000 C 
ATOM     15  C   UNL     1      22.600 -45.521   6.472  0.00  0.00    +0.000 C 
ATOM     16  N   UNL     1      23.146 -44.269   5.994  0.00  0.00    +0.000 NA
ATOM     17  C   UNL     1      22.404 -43.750   4.859  0.00  0.00    +0.000 C 
ATOM     18  C   UNL     1      20.923 -44.053   4.961  0.00  0.00    +0.000 C 
ATOM     19  H   UNL     1      23.181 -43.595   6.796  0.00  0.00    +0.000 HD
ENDBRANCH   8   9
BRANCH   8  20
ATOM     20  C   UNL     1      17.295 -41.886   8.378  0.00  0.00    +0.000 A 
ATOM     21  C   UNL     1      16.680 -41.212   7.347  0.00  0.00    +0.000 A 
ATOM     22  C   UNL     1      16.394 -39.872   7.448  0.00  0.00    +0.000 A 
ATOM     23  C   UNL     1      16.735 -39.202   8.614  0.00  0.00    +0.000 A 
ATOM     24  C   UNL     1      17.342 -39.839   9.646  0.00  0.00    +0.000 A 
ATOM     25  C   UNL     1      17.620 -41.188   9.521  0.00  0.00    +0.000 A 
ENDBRANCH   8  20
ENDBRANCH   1   6
BRANCH   3  26
ATOM     26  C   UNL     1      12.522 -42.625  11.182  0.00  0.00    +0.000 C 
BRANCH  26  27
ATOM     27  N   UNL     1      12.048 -41.305  10.973  0.00  0.00    +0.000 NA
ATOM     28  C   UNL     1      11.931 -40.522  12.148  0.00  0.00    +0.000 C 
ATOM     29  C   UNL     1      13.065 -39.561  12.410  0.00  0.00    +0.000 C 
ATOM     30  C   UNL     1      14.179 -39.751  11.398  0.00  0.00    +0.000 C 
ATOM     31  C   UNL     1      13.614 -39.677  10.017  0.00  0.00    +0.000 C 
ATOM     32  C   UNL     1      12.465 -40.631   9.802  0.00  0.00    +0.000 C 
BRANCH  29  33
ATOM     33  C   UNL     1      12.551 -38.152  12.421  0.00  0.00    +0.000 C 
BRANCH  33  34
ATOM     34  O   UNL     1      13.404 -37.161  12.799  0.00  0.00    +0.000 OA
BRANCH  34  35
ATOM     35  C   UNL     1      14.241 -36.302  12.195  0.00  0.00    +0.000 A 
ATOM     36  C   UNL     1      15.550 -36.699  11.876  0.00  0.00    +0.000 A 
ATOM     37  C   UNL     1      16.445 -35.865  11.258  0.00  0.00    +0.000 A 
ATOM     38  C   UNL     1      16.081 -34.580  10.921  0.00  0.00    +0.000 A 
ATOM     39  C   UNL     1      14.793 -34.182  11.231  0.00  0.00    +0.000 A 
ATOM     40  C   UNL     1      13.880 -35.026  11.860  0.00  0.00    +0.000 A 
ATOM     41  C   UNL     1      17.833 -36.300  10.925  0.00  0.00    +0.000 C 
ENDBRANCH  34  35
ENDBRANCH  33  34
ENDBRANCH  29  33
ENDBRANCH  26  27
ENDBRANCH   3  26
TORSDOF 8
ENDMDL
