MODEL 1
REMARK VINA RESULT:    -8.885      0.000      0.000
REMARK INTER + INTRA:         -15.901
REMARK INTER:                 -14.339
REMARK INTRA:                  -1.562
REMARK UNBOUND:                -1.562
REMARK  Name = 
REMARK  13 active torsions:
REMARK  status: ('A' for Active; 'I' for Inactive)
REMARK    1  A    between atoms: C_1  and  C_10
REMARK    2  A    between atoms: C_5  and  C_7
REMARK    3  A    between atoms: C_7  and  C_8
REMARK    4  A    between atoms: C_8  and  O_9
REMARK    5  A    between atoms: C_15  and  C_16
REMARK    6  A    between atoms: C_16  and  C_32
REMARK    7  A    between atoms: C_18  and  C_20
REMARK    8  A    between atoms: N_23  and  C_25
REMARK    9  A    between atoms: C_32  and  O_34
REMARK   10  A    between atoms: O_34  and  N_35
REMARK   11  A    between atoms: C_36  and  C_48
REMARK   12  A    between atoms: C_40  and  C_41
REMARK   13  A    between atoms: C_41  and  C_42
REMARK                            x       y       z     vdW  Elec       q    Type
REMARK                         _______ _______ _______ _____ _____    ______ ____
ROOT
ATOM      1  C   UNL     1      22.136 -43.475   7.828  0.00  0.00    +0.000 C 
ATOM      2  N   UNL     1      21.739 -44.231   6.660  0.00  0.00    +0.000 N 
ATOM      3  C   UNL     1      20.399 -44.421   6.283  0.00  0.00    +0.000 C 
ATOM      4  O   UNL     1      20.183 -45.103   5.218  0.00  0.00    +0.000 OA
ATOM      5  C   UNL     1      19.168 -43.953   6.926  0.00  0.00    +0.000 C 
ATOM      6  C   UNL     1      22.698 -44.884   5.753  0.00  0.00    +0.000 C 
ATOM      7  C   UNL     1      24.052 -45.077   6.290  0.00  0.00    +0.000 C 
ATOM      8  N   UNL     1      24.487 -44.016   7.168  0.00  0.00    +0.000 N 
ATOM      9  C   UNL     1      23.578 -43.053   7.610  0.00  0.00    +0.000 C 
ENDROOT
BRANCH   1  15
ATOM     10  C   UNL     1      22.354 -45.543   9.284  0.00  0.00    +0.000 C 
ATOM     11  C   UNL     1      22.211 -45.852  10.794  0.00  0.00    +0.000 C 
ATOM     12  N   UNL     1      23.379 -45.355  11.487  0.00  0.00    +0.000 NA
ATOM     13  C   UNL     1      23.773 -44.132  10.807  0.00  0.00    +0.000 C 
ATOM     14  C   UNL     1      22.529 -43.381  10.307  0.00  0.00    +0.000 C 
ATOM     15  C   UNL     1      21.870 -44.092   9.139  0.00  0.00    +0.000 C 
ATOM     16  H   UNL     1      23.111 -45.109  12.469  0.00  0.00    +0.000 HD
BRANCH  10  17
ATOM     17  C   UNL     1      21.425 -46.498   8.648  0.00  0.00    +0.000 A 
ATOM     18  N   UNL     1      21.885 -47.365   7.741  0.00  0.00    +0.000 NA
ATOM     19  C   UNL     1      21.125 -48.270   7.121  0.00  0.00    +0.000 A 
ATOM     20  N   UNL     1      19.816 -48.322   7.419  0.00  0.00    +0.000 NA
ATOM     21  C   UNL     1      19.264 -47.494   8.314  0.00  0.00    +0.000 A 
ATOM     22  C   UNL     1      20.079 -46.563   8.943  0.00  0.00    +0.000 A 
BRANCH  21  23
ATOM     23  C   UNL     1      17.827 -47.586   8.604  0.00  0.00    +0.000 C 
BRANCH  23  24
ATOM     24  C   UNL     1      17.106 -46.278   8.364  0.00  0.00    +0.000 C 
BRANCH  24  25
ATOM     25  O   UNL     1      16.329 -45.889   9.430  0.00  0.00    +0.000 OA
ATOM     26  H   UNL     1      16.580 -44.970   9.736  0.00  0.00    +0.000 HD
ENDBRANCH  24  25
ENDBRANCH  23  24
ENDBRANCH  21  23
ENDBRANCH  10  17
ENDBRANCH   1  15
BRANCH   8  27
ATOM     27  C   UNL     1      25.857 -44.001   7.540  0.00  0.00    +0.000 A 
ATOM     28  C   UNL     1      26.265 -43.455   8.736  0.00  0.00    +0.000 A 
ATOM     29  C   UNL     1      27.613 -43.447   9.112  0.00  0.00    +0.000 A 
ATOM     30  C   UNL     1      28.569 -43.982   8.295  0.00  0.00    +0.000 A 
ATOM     31  C   UNL     1      28.139 -44.526   7.097  0.00  0.00    +0.000 A 
ATOM     32  C   UNL     1      26.827 -44.547   6.706  0.00  0.00    +0.000 A 
ATOM     33  F   UNL     1      29.855 -43.954   8.691  0.00  0.00    +0.000 F 
ENDBRANCH   8  27
BRANCH   1  34
ATOM     34  C   UNL     1      21.382 -42.146   7.774  0.00  0.00    +0.000 C 
ATOM     35  O   UNL     1      21.397 -41.522   6.703  0.00  0.00    +0.000 OA
BRANCH  34  36
ATOM     36  O   UNL     1      20.693 -41.605   8.813  0.00  0.00    +0.000 OA
BRANCH  36  37
ATOM     37  N   UNL     1      19.705 -40.697   8.766  0.00  0.00    +0.000 NA
ATOM     38  C   UNL     1      20.082 -39.517   9.438  0.00  0.00    +0.000 C 
ATOM     39  C   UNL     1      18.991 -38.597   9.789  0.00  0.00    +0.000 A 
ATOM     40  C   UNL     1      17.700 -39.071   9.934  0.00  0.00    +0.000 A 
ATOM     41  C   UNL     1      17.510 -40.509   9.722  0.00  0.00    +0.000 C 
ATOM     42  C   UNL     1      18.383 -41.070   8.627  0.00  0.00    +0.000 C 
ATOM     43  C   UNL     1      16.718 -38.183  10.259  0.00  0.00    +0.000 A 
ATOM     44  C   UNL     1      16.979 -36.833  10.446  0.00  0.00    +0.000 A 
ATOM     45  C   UNL     1      18.267 -36.378  10.300  0.00  0.00    +0.000 A 
ATOM     46  C   UNL     1      19.276 -37.264   9.970  0.00  0.00    +0.000 A 
ATOM     47  C   UNL     1      21.195 -38.744   8.717  0.00  0.00    +0.000 C 
BRANCH  42  48
ATOM     48  C   UNL     1      17.742 -40.785   7.290  0.00  0.00    +0.000 C 
BRANCH  48  49
ATOM     49  C   UNL     1      16.264 -40.909   7.383  0.00  0.00    +0.000 C 
ATOM     50  C   UNL     1      15.456 -39.889   7.057  0.00  0.00    +0.000 C 
ENDBRANCH  48  49
ENDBRANCH  42  48
ENDBRANCH  36  37
ENDBRANCH  34  36
ENDBRANCH   1  34
TORSDOF 11
ENDMDL
