MODEL 1
REMARK VINA RESULT:    -8.973      0.000      0.000
REMARK INTER + INTRA:         -12.094
REMARK INTER:                 -14.219
REMARK INTRA:                   2.125
REMARK UNBOUND:                 2.125
REMARK  Name = 
REMARK  16 active torsions:
REMARK  status: ('A' for Active; 'I' for Inactive)
REMARK    1  A    between atoms: C_1  and  C_18
REMARK    2  A    between atoms: C_2  and  C_17
REMARK    3  A    between atoms: C_4  and  N_16
REMARK    4  A    between atoms: C_5  and  C_14
REMARK    5  A    between atoms: C_6  and  C_7
REMARK    6  A    between atoms: C_8  and  C_13
REMARK    7  A    between atoms: C_10  and  C_12
REMARK    8  A    between atoms: C_18  and  O_20
REMARK    9  A    between atoms: O_20  and  C_21
REMARK   10  A    between atoms: C_21  and  C_22
REMARK   11  A    between atoms: C_22  and  N_23
REMARK   12  A    between atoms: C_24  and  C_32
REMARK   13  A    between atoms: C_27  and  C_28
REMARK   14  A    between atoms: C_27  and  C_30
REMARK   15  A    between atoms: C_28  and  O_29
REMARK   16  A    between atoms: C_30  and  O_31
REMARK                            x       y       z     vdW  Elec       q    Type
REMARK                         _______ _______ _______ _____ _____    ______ ____
ROOT
ATOM      1  C   UNL     1      22.540 -40.668   8.453  0.00  0.00    +0.000 C 
ATOM      2  O   UNL     1      22.789 -40.558   9.426  0.00  0.00    +0.000 OA
ENDROOT
BRANCH   1   3
ATOM      3  C   UNL     1      22.567 -41.037   7.012  0.00  0.00    +0.000 C 
ATOM      4  C   UNL     1      22.270 -40.495   5.920  0.00  0.00    +0.000 C 
ATOM      5  O   UNL     1      22.317 -40.833   4.597  0.00  0.00    +0.000 OA
ATOM      6  C   UNL     1      22.824 -42.219   4.449  0.00  0.00    +0.000 C 
ATOM      7  C   UNL     1      23.119 -42.797   5.401  0.00  0.00    +0.000 C 
ATOM      8  C   UNL     1      23.175 -42.488   6.908  0.00  0.00    +0.000 C 
ATOM      9  C   UNL     1      21.644 -39.033   6.037  0.00  0.00    +0.000 C 
BRANCH   8  10
ATOM     10  C   UNL     1      22.078 -43.348   7.504  0.00  0.00    +0.000 A 
ATOM     11  C   UNL     1      22.471 -44.234   8.588  0.00  0.00    +0.000 A 
ATOM     12  S   UNL     1      20.960 -45.092   8.994  0.00  0.00    +0.000 S 
ATOM     13  C   UNL     1      19.893 -44.163   7.648  0.00  0.00    +0.000 A 
ATOM     14  C   UNL     1      20.861 -43.485   7.253  0.00  0.00    +0.000 A 
ATOM     15  C   UNL     1      18.493 -44.481   7.514  0.00  0.00    +0.000 C 
ATOM     16  C   UNL     1      23.772 -44.428   9.160  0.00  0.00    +0.000 C 
ENDBRANCH   8  10
BRANCH   6  17
ATOM     17  N   UNL     1      22.850 -42.711   3.080  0.00  0.00    +0.000 N 
ATOM     18  H   UNL     1      23.417 -43.488   2.736  0.00  0.00    +0.000 HD
ATOM     19  H   UNL     1      22.197 -42.226   2.365  0.00  0.00    +0.000 HD
ENDBRANCH   6  17
BRANCH   7  20
ATOM     20  C   UNL     1      22.677 -44.419   5.468  0.00  0.00    +0.000 C 
ATOM     21  N   UNL     1      22.394 -45.478   5.493  0.00  0.00    +0.000 NA
ENDBRANCH   7  20
ENDBRANCH   1   3
BRANCH   1  22
ATOM     22  O   UNL     1      21.002 -39.966   8.459  0.00  0.00    +0.000 OA
BRANCH  22  23
ATOM     23  C   UNL     1      20.277 -40.729   9.432  0.00  0.00    +0.000 C 
BRANCH  23  24
ATOM     24  C   UNL     1      18.836 -40.880   9.360  0.00  0.00    +0.000 C 
BRANCH  24  25
ATOM     25  N   UNL     1      17.961 -39.799   9.244  0.00  0.00    +0.000 NA
ATOM     26  C   UNL     1      18.477 -38.512   8.944  0.00  0.00    +0.000 C 
ATOM     27  O   UNL     1      18.324 -38.359   7.541  0.00  0.00    +0.000 OA
ATOM     28  C   UNL     1      17.769 -39.467   7.007  0.00  0.00    +0.000 C 
ATOM     29  C   UNL     1      16.957 -40.032   8.243  0.00  0.00    +0.000 C 
BRANCH  26  30
ATOM     30  C   UNL     1      17.760 -37.427   9.610  0.00  0.00    +0.000 A 
ATOM     31  C   UNL     1      17.591 -36.153   9.249  0.00  0.00    +0.000 A 
ATOM     32  N   UNL     1      17.022 -35.009   9.726  0.00  0.00    +0.000 NA
ATOM     33  C   UNL     1      16.305 -35.469  11.297  0.00  0.00    +0.000 A 
ATOM     34  C   UNL     1      16.594 -36.504  11.305  0.00  0.00    +0.000 A 
ATOM     35  C   UNL     1      17.172 -37.713  10.857  0.00  0.00    +0.000 A 
ENDBRANCH  26  30
BRANCH  29  36
ATOM     36  C   UNL     1      16.699 -41.449   7.874  0.00  0.00    +0.000 C 
BRANCH  36  37
ATOM     37  O   UNL     1      16.371 -41.482   6.478  0.00  0.00    +0.000 OA
ATOM     38  H   UNL     1      17.076 -40.961   5.993  0.00  0.00    +0.000 HD
ENDBRANCH  36  37
ENDBRANCH  29  36
BRANCH  29  39
ATOM     39  C   UNL     1      15.722 -39.227   8.369  0.00  0.00    +0.000 C 
BRANCH  39  40
ATOM     40  O   UNL     1      15.245 -38.871   7.136  0.00  0.00    +0.000 OA
ATOM     41  H   UNL     1      15.609 -39.353   6.363  0.00  0.00    +0.000 HD
ENDBRANCH  39  40
ENDBRANCH  29  39
ENDBRANCH  24  25
ENDBRANCH  23  24
ENDBRANCH  22  23
ENDBRANCH   1  22
TORSDOF 13
ENDMDL
