MODEL 1
REMARK VINA RESULT:    -9.444      0.000      0.000
REMARK INTER + INTRA:         -16.062
REMARK INTER:                 -14.413
REMARK INTRA:                  -1.649
REMARK UNBOUND:                -1.649
REMARK  Name = 
REMARK  11 active torsions:
REMARK  status: ('A' for Active; 'I' for Inactive)
REMARK    1  A    between atoms: N_1  and  C_36
REMARK    2  A    between atoms: C_2  and  C_31
REMARK    3  A    between atoms: C_8  and  C_9
REMARK    4  A    between atoms: C_9  and  N_10
REMARK    5  A    between atoms: N_10  and  C_11
REMARK    6  A    between atoms: C_11  and  C_12
REMARK    7  A    between atoms: C_15  and  S_16
REMARK    8  A    between atoms: S_16  and  C_17
REMARK    9  A    between atoms: C_22  and  S_23
REMARK   10  A    between atoms: S_23  and  C_24
REMARK   11  A    between atoms: C_24  and  C_25
REMARK                            x       y       z     vdW  Elec       q    Type
REMARK                         _______ _______ _______ _____ _____    ______ ____
ROOT
ATOM      1  N   UNL     1      15.939 -42.080   9.095  0.00  0.00    +0.000 N 
ATOM      2  C   UNL     1      14.645 -41.677   9.199  0.00  0.00    +0.000 A 
ATOM      3  N   UNL     1      14.690 -40.413   9.639  0.00  0.00    +0.000 NA
ATOM      4  N   UNL     1      15.917 -40.024   9.807  0.00  0.00    +0.000 N 
ATOM      5  N   UNL     1      16.719 -41.051   9.469  0.00  0.00    +0.000 N 
ATOM      6  C   UNL     1      18.047 -41.222   9.402  0.00  0.00    +0.000 A 
ATOM      7  C   UNL     1      19.135 -40.376   9.113  0.00  0.00    +0.000 A 
ATOM      8  C   UNL     1      19.321 -39.039   9.297  0.00  0.00    +0.000 A 
ATOM      9  C   UNL     1      18.410 -37.953   9.465  0.00  0.00    +0.000 A 
ATOM     10  C   UNL     1      17.207 -37.895  10.119  0.00  0.00    +0.000 A 
ATOM     11  C   UNL     1      16.120 -38.769  10.229  0.00  0.00    +0.000 A 
ATOM     12  C   UNL     1      16.436 -43.355   8.694  0.00  0.00    +0.000 C 
ENDROOT
BRANCH   2  13
ATOM     13  C   UNL     1      13.439 -42.456   8.814  0.00  0.00    +0.000 C 
ATOM     14  N   UNL     1      12.950 -43.246   9.919  0.00  0.00    +0.000 NA
ATOM     15  C   UNL     1      11.570 -43.483   9.684  0.00  0.00    +0.000 C 
ATOM     16  C   UNL     1      11.100 -42.208   9.037  0.00  0.00    +0.000 C 
ATOM     17  C   UNL     1      12.306 -41.650   8.306  0.00  0.00    +0.000 C 
ATOM     18  H   UNL     1      13.261 -42.950  10.831  0.00  0.00    +0.000 HD
ENDBRANCH   2  13
BRANCH   8  19
ATOM     19  C   UNL     1      20.674 -38.566   9.436  0.00  0.00    +0.000 C 
BRANCH  19  20
ATOM     20  N   UNL     1      21.239 -37.894   8.245  0.00  0.00    +0.000 NA
ATOM     21  H   UNL     1      20.602 -38.056   7.440  0.00  0.00    +0.000 HD
BRANCH  20  22
ATOM     22  C   UNL     1      22.488 -38.568   7.955  0.00  0.00    +0.000 C 
BRANCH  22  23
ATOM     23  C   UNL     1      22.411 -39.693   7.055  0.00  0.00    +0.000 A 
ATOM     24  C   UNL     1      21.918 -39.654   5.803  0.00  0.00    +0.000 A 
ATOM     25  C   UNL     1      21.840 -40.782   5.014  0.00  0.00    +0.000 A 
ATOM     26  C   UNL     1      22.269 -41.993   5.496  0.00  0.00    +0.000 A 
ATOM     27  C   UNL     1      22.779 -42.067   6.774  0.00  0.00    +0.000 A 
ATOM     28  C   UNL     1      22.853 -40.947   7.549  0.00  0.00    +0.000 A 
BRANCH  26  29
ATOM     29  S   UNL     1      22.171 -43.470   4.522  0.00  0.00    +0.000 S 
ATOM     30  C   UNL     1      21.010 -44.587   5.355  0.00  0.00    +0.000 C 
ENDBRANCH  26  29
ENDBRANCH  22  23
ENDBRANCH  20  22
ENDBRANCH  19  20
ENDBRANCH   8  19
BRANCH  11  31
ATOM     31  S   UNL     1      14.798 -37.975  11.072  0.00  0.00    +0.000 S 
BRANCH  31  32
ATOM     32  C   UNL     1      15.342 -36.695  12.244  0.00  0.00    +0.000 C 
BRANCH  32  33
ATOM     33  C   UNL     1      14.970 -35.386  11.649  0.00  0.00    +0.000 A 
ATOM     34  C   UNL     1      16.013 -34.642  11.101  0.00  0.00    +0.000 A 
ATOM     35  C   UNL     1      15.707 -33.413  10.524  0.00  0.00    +0.000 A 
ATOM     36  C   UNL     1      14.395 -32.926  10.487  0.00  0.00    +0.000 A 
ATOM     37  C   UNL     1      13.412 -33.690  11.037  0.00  0.00    +0.000 A 
ATOM     38  C   UNL     1      13.701 -34.896  11.607  0.00  0.00    +0.000 A 
ENDBRANCH  32  33
ENDBRANCH  31  32
ENDBRANCH  11  31
TORSDOF 9
ENDMDL
