MODEL 1
REMARK VINA RESULT:    -9.947      0.000      0.000
REMARK INTER + INTRA:         -16.437
REMARK INTER:                 -14.598
REMARK INTRA:                  -1.838
REMARK UNBOUND:                -1.838
REMARK  Name = 
REMARK  10 active torsions:
REMARK  status: ('A' for Active; 'I' for Inactive)
REMARK    1  A    between atoms: N_1  and  C_12
REMARK    2  A    between atoms: N_5  and  O_6
REMARK    3  A    between atoms: C_12  and  C_13
REMARK    4  A    between atoms: C_14  and  C_19
REMARK    5  A    between atoms: C_17  and  N_18
REMARK    6  A    between atoms: C_21  and  O_22
REMARK    7  A    between atoms: O_22  and  C_23
REMARK    8  A    between atoms: C_23  and  C_24
REMARK    9  A    between atoms: C_27  and  N_28
REMARK   10  A    between atoms: C_29  and  C_42
REMARK                            x       y       z     vdW  Elec       q    Type
REMARK                         _______ _______ _______ _____ _____    ______ ____
ROOT
ATOM      1  C   UNL     1      17.705 -38.905   8.691  0.00  0.00    +0.000 A 
ATOM      2  C   UNL     1      16.854 -37.803   8.952  0.00  0.00    +0.000 A 
ATOM      3  C   UNL     1      17.327 -36.716   9.657  0.00  0.00    +0.000 A 
ATOM      4  C   UNL     1      18.638 -36.739  10.093  0.00  0.00    +0.000 A 
ATOM      5  C   UNL     1      19.428 -37.807   9.826  0.00  0.00    +0.000 A 
ATOM      6  C   UNL     1      18.983 -38.959   9.097  0.00  0.00    +0.000 A 
ENDROOT
BRANCH   6   7
ATOM      7  N   UNL     1      19.861 -39.994   8.854  0.00  0.00    +0.000 N 
ATOM      8  C   UNL     1      20.137 -41.236   9.583  0.00  0.00    +0.000 C 
ATOM      9  C   UNL     1      21.503 -41.000  10.124  0.00  0.00    +0.000 C 
ATOM     10  C   UNL     1      22.572 -40.807   9.098  0.00  0.00    +0.000 C 
ATOM     11  C   UNL     1      22.096 -40.290   7.827  0.00  0.00    +0.000 A 
ATOM     12  C   UNL     1      20.771 -39.851   7.728  0.00  0.00    +0.000 A 
ATOM     13  C   UNL     1      20.295 -39.269   6.541  0.00  0.00    +0.000 A 
ATOM     14  C   UNL     1      21.129 -39.125   5.451  0.00  0.00    +0.000 A 
ATOM     15  C   UNL     1      22.425 -39.571   5.585  0.00  0.00    +0.000 A 
ATOM     16  C   UNL     1      22.927 -40.138   6.713  0.00  0.00    +0.000 A 
ATOM     17  F   UNL     1      23.286 -39.442   4.519  0.00  0.00    +0.000 F 
ATOM     18  O   UNL     1      23.323 -41.972   9.098  0.00  0.00    +0.000 OA
ATOM     19  C   UNL     1      23.408 -42.335  10.457  0.00  0.00    +0.000 C 
ATOM     20  C   UNL     1      22.088 -41.923  11.103  0.00  0.00    +0.000 C 
BRANCH   8  21
ATOM     21  C   UNL     1      19.975 -42.341   8.640  0.00  0.00    +0.000 A 
ATOM     22  C   UNL     1      18.777 -43.051   8.686  0.00  0.00    +0.000 A 
ATOM     23  C   UNL     1      18.474 -44.112   7.862  0.00  0.00    +0.000 A 
ATOM     24  C   UNL     1      19.375 -44.520   6.937  0.00  0.00    +0.000 A 
ATOM     25  C   UNL     1      20.576 -43.868   6.835  0.00  0.00    +0.000 A 
ATOM     26  C   UNL     1      20.847 -42.792   7.692  0.00  0.00    +0.000 A 
ENDBRANCH   8  21
ENDBRANCH   6   7
BRANCH   1  28
ATOM     27  C   UNL     1      16.049 -40.772   8.618  0.00  0.00    +0.000 A 
ATOM     28  C   UNL     1      17.054 -39.989   7.960  0.00  0.00    +0.000 A 
ATOM     29  N   UNL     1      17.170 -40.494   6.761  0.00  0.00    +0.000 NA
ATOM     30  N   UNL     1      16.355 -41.497   6.602  0.00  0.00    +0.000 N 
ATOM     31  C   UNL     1      15.640 -41.709   7.722  0.00  0.00    +0.000 A 
ATOM     32  H   UNL     1      16.234 -42.093   5.730  0.00  0.00    +0.000 HD
BRANCH  31  33
ATOM     33  N   UNL     1      14.669 -42.763   7.901  0.00  0.00    +0.000 N 
ATOM     34  H   UNL     1      14.923 -43.721   8.120  0.00  0.00    +0.000 HD
ATOM     35  H   UNL     1      13.672 -42.504   7.792  0.00  0.00    +0.000 HD
ENDBRANCH  31  33
BRANCH  27  36
ATOM     36  C   UNL     1      15.669 -40.566  10.016  0.00  0.00    +0.000 C 
BRANCH  36  37
ATOM     37  N   UNL     1      14.362 -40.884  10.411  0.00  0.00    +0.000 NA
ATOM     38  C   UNL     1      14.173 -40.547  11.833  0.00  0.00    +0.000 C 
ATOM     39  C   UNL     1      12.815 -40.886  12.331  0.00  0.00    +0.000 C 
ATOM     40  C   UNL     1      12.117 -41.641  11.268  0.00  0.00    +0.000 C 
ATOM     41  N   UNL     1      11.598 -42.775  11.488  0.00  0.00    +0.000 NA
ATOM     42  C   UNL     1      12.056 -40.995   9.926  0.00  0.00    +0.000 C 
ATOM     43  C   UNL     1      13.321 -40.141   9.729  0.00  0.00    +0.000 C 
ATOM     44  C   UNL     1      13.026 -38.777  10.203  0.00  0.00    +0.000 C 
ATOM     45  C   UNL     1      13.945 -38.149  11.186  0.00  0.00    +0.000 C 
ATOM     46  C   UNL     1      14.550 -39.143  12.150  0.00  0.00    +0.000 C 
BRANCH  41  47
ATOM     47  O   UNL     1      10.942 -43.534  10.572  0.00  0.00    +0.000 OA
ATOM     48  H   UNL     1      11.447 -44.137   9.918  0.00  0.00    +0.000 HD
ENDBRANCH  41  47
ENDBRANCH  36  37
ENDBRANCH  27  36
ENDBRANCH   1  28
BRANCH   3  49
ATOM     49  O   UNL     1      16.497 -35.635   9.915  0.00  0.00    +0.000 OA
BRANCH  49  50
ATOM     50  C   UNL     1      16.349 -35.144  11.220  0.00  0.00    +0.000 C 
ATOM     51  C   UNL     1      15.583 -33.834  11.242  0.00  0.00    +0.000 C 
ENDBRANCH  49  50
ENDBRANCH   3  49
TORSDOF 9
ENDMDL
