MODEL 1
REMARK VINA RESULT:    -7.489      0.000      0.000
REMARK INTER + INTRA:         -18.290
REMARK INTER:                 -14.713
REMARK INTRA:                  -3.577
REMARK UNBOUND:                -3.577
REMARK  Name = 
REMARK  20 active torsions:
REMARK  status: ('A' for Active; 'I' for Inactive)
REMARK    1  A    between atoms: C_1  and  S_9
REMARK    2  A    between atoms: C_3  and  C_8
REMARK    3  A    between atoms: C_5  and  C_7
REMARK    4  A    between atoms: S_9  and  C_10
REMARK    5  A    between atoms: C_10  and  C_11
REMARK    6  A    between atoms: C_11  and  C_12
REMARK    7  A    between atoms: C_12  and  N_13
REMARK    8  A    between atoms: N_13  and  C_14
REMARK    9  A    between atoms: C_14  and  C_15
REMARK   10  A    between atoms: C_16  and  O_22
REMARK   11  A    between atoms: O_22  and  C_23
REMARK   12  A    between atoms: C_23  and  C_24
REMARK   13  A    between atoms: C_24  and  N_25
REMARK   14  A    between atoms: C_30  and  C_31
REMARK   15  A    between atoms: C_33  and  O_42
REMARK   16  A    between atoms: C_34  and  O_35
REMARK   17  A    between atoms: O_35  and  C_36
REMARK   18  A    between atoms: C_36  and  C_37
REMARK   19  A    between atoms: C_37  and  O_39
REMARK   20  A    between atoms: O_42  and  C_43
REMARK                            x       y       z     vdW  Elec       q    Type
REMARK                         _______ _______ _______ _____ _____    ______ ____
ROOT
ATOM      1  C   UNL     1      14.773 -40.443  10.667  0.00  0.00    +0.000 C 
ENDROOT
BRANCH   1   2
ATOM      2  C   UNL     1      14.603 -40.709   9.194  0.00  0.00    +0.000 C 
BRANCH   2   3
ATOM      3  N   UNL     1      15.450 -41.882   8.850  0.00  0.00    +0.000 N 
ATOM      4  C   UNL     1      14.851 -43.150   8.626  0.00  0.00    +0.000 C 
ATOM      5  O   UNL     1      13.630 -43.417   8.423  0.00  0.00    +0.000 OA
ATOM      6  S   UNL     1      16.210 -44.319   8.695  0.00  0.00    +0.000 S 
ATOM      7  C   UNL     1      17.494 -43.077   8.379  0.00  0.00    +0.000 C 
ATOM      8  C   UNL     1      18.694 -43.334   7.948  0.00  0.00    +0.000 C 
ATOM      9  C   UNL     1      16.831 -41.834   8.722  0.00  0.00    +0.000 C 
ATOM     10  O   UNL     1      17.518 -40.756   8.893  0.00  0.00    +0.000 OA
BRANCH   8  11
ATOM     11  C   UNL     1      19.168 -44.680   7.661  0.00  0.00    +0.000 A 
ATOM     12  C   UNL     1      19.689 -45.452   8.682  0.00  0.00    +0.000 A 
ATOM     13  C   UNL     1      20.150 -46.727   8.495  0.00  0.00    +0.000 A 
ATOM     14  C   UNL     1      20.093 -47.278   7.213  0.00  0.00    +0.000 A 
ATOM     15  C   UNL     1      19.577 -46.515   6.204  0.00  0.00    +0.000 A 
ATOM     16  C   UNL     1      19.119 -45.239   6.404  0.00  0.00    +0.000 A 
BRANCH  13  17
ATOM     17  O   UNL     1      20.679 -47.534   9.482  0.00  0.00    +0.000 OA
ATOM     18  C   UNL     1      21.721 -47.153  10.355  0.00  0.00    +0.000 C 
ENDBRANCH  13  17
BRANCH  14  19
ATOM     19  O   UNL     1      20.541 -48.561   6.965  0.00  0.00    +0.000 OA
BRANCH  19  20
ATOM     20  C   UNL     1      21.432 -48.880   5.941  0.00  0.00    +0.000 C 
BRANCH  20  21
ATOM     21  C   UNL     1      21.672 -50.343   5.792  0.00  0.00    +0.000 C 
ATOM     22  O   UNL     1      21.548 -51.120   6.772  0.00  0.00    +0.000 OA
BRANCH  21  23
ATOM     23  O   UNL     1      22.038 -50.946   4.590  0.00  0.00    +0.000 OA
ATOM     24  H   UNL     1      22.267 -50.379   3.774  0.00  0.00    +0.000 HD
ENDBRANCH  21  23
ENDBRANCH  20  21
ENDBRANCH  19  20
ENDBRANCH  14  19
ENDBRANCH   8  11
ENDBRANCH   2   3
ENDBRANCH   1   2
BRANCH   1  25
ATOM     25  O   UNL     1      15.490 -39.349  11.033  0.00  0.00    +0.000 OA
BRANCH  25  27
ATOM     26  C   UNL     1      16.265 -37.121  10.933  0.00  0.00    +0.000 A 
ATOM     27  C   UNL     1      15.228 -38.036  11.199  0.00  0.00    +0.000 A 
ATOM     28  C   UNL     1      14.005 -37.576  11.608  0.00  0.00    +0.000 A 
ATOM     29  C   UNL     1      13.750 -36.214  11.771  0.00  0.00    +0.000 A 
ATOM     30  C   UNL     1      14.773 -35.347  11.507  0.00  0.00    +0.000 A 
ATOM     31  C   UNL     1      16.013 -35.798  11.093  0.00  0.00    +0.000 A 
ATOM     32 CL   UNL     1      14.471 -33.630  11.710  0.00  0.00    +0.000 Cl
BRANCH  26  33
ATOM     33  C   UNL     1      17.563 -37.681  10.503  0.00  0.00    +0.000 C 
BRANCH  33  34
ATOM     34  N   UNL     1      17.584 -37.954   9.081  0.00  0.00    +0.000 NA
ATOM     35  H   UNL     1      16.834 -37.437   8.575  0.00  0.00    +0.000 HD
BRANCH  34  36
ATOM     36  C   UNL     1      18.879 -37.726   8.495  0.00  0.00    +0.000 C 
BRANCH  36  37
ATOM     37  C   UNL     1      19.902 -38.239   9.516  0.00  0.00    +0.000 C 
BRANCH  37  38
ATOM     38  C   UNL     1      21.152 -38.565   8.684  0.00  0.00    +0.000 C 
BRANCH  38  39
ATOM     39  S   UNL     1      20.759 -39.422   7.158  0.00  0.00    +0.000 S 
BRANCH  39  40
ATOM     40  C   UNL     1      21.479 -41.042   7.224  0.00  0.00    +0.000 A 
ATOM     41  N   UNL     1      21.840 -41.536   8.435  0.00  0.00    +0.000 NA
ATOM     42  C   UNL     1      22.390 -42.753   8.570  0.00  0.00    +0.000 A 
ATOM     43  C   UNL     1      22.585 -43.508   7.421  0.00  0.00    +0.000 A 
ATOM     44  C   UNL     1      22.221 -43.014   6.179  0.00  0.00    +0.000 A 
ATOM     45  N   UNL     1      21.668 -41.770   6.131  0.00  0.00    +0.000 NA
ATOM     46  C   UNL     1      22.421 -43.807   4.945  0.00  0.00    +0.000 C 
ATOM     47  C   UNL     1      22.769 -43.258   9.906  0.00  0.00    +0.000 C 
ENDBRANCH  39  40
ENDBRANCH  38  39
ENDBRANCH  37  38
ENDBRANCH  36  37
ENDBRANCH  34  36
ENDBRANCH  33  34
ENDBRANCH  26  33
ENDBRANCH  25  27
ENDBRANCH   1  25
TORSDOF 17
ENDMDL
