MODEL 1
REMARK VINA RESULT:    -7.576      0.000      0.000
REMARK INTER + INTRA:         -14.760
REMARK INTER:                 -12.226
REMARK INTRA:                  -2.533
REMARK UNBOUND:                -2.533
REMARK  Name = 
REMARK  14 active torsions:
REMARK  status: ('A' for Active; 'I' for Inactive)
REMARK    1  A    between atoms: C_2  and  C_15
REMARK    2  A    between atoms: C_3  and  C_14
REMARK    3  A    between atoms: C_4  and  C_11
REMARK    4  A    between atoms: C_11  and  O_13
REMARK    5  A    between atoms: C_20  and  N_21
REMARK    6  A    between atoms: N_21  and  C_22
REMARK    7  A    between atoms: C_23  and  O_30
REMARK    8  A    between atoms: C_25  and  O_28
REMARK    9  A    between atoms: O_28  and  C_29
REMARK   10  A    between atoms: O_30  and  C_31
REMARK   11  A    between atoms: C_32  and  C_34
REMARK   12  A    between atoms: C_34  and  N_35
REMARK   13  A    between atoms: N_35  and  C_36
REMARK   14  A    between atoms: C_36  and  C_37
REMARK                            x       y       z     vdW  Elec       q    Type
REMARK                         _______ _______ _______ _____ _____    ______ ____
ROOT
ATOM      1  N   UNL     1      22.138 -41.503   8.051  0.00  0.00    +0.000 N 
ATOM      2  C   UNL     1      23.090 -41.785   9.046  0.00  0.00    +0.000 C 
ATOM      3  O   UNL     1      22.662 -41.554  10.264  0.00  0.00    +0.000 OA
ENDROOT
BRANCH   1   9
ATOM      4  C   UNL     1      21.625 -42.791   5.990  0.00  0.00    +0.000 A 
ATOM      5  C   UNL     1      21.747 -42.780   4.572  0.00  0.00    +0.000 A 
ATOM      6  C   UNL     1      22.367 -41.810   3.869  0.00  0.00    +0.000 A 
ATOM      7  C   UNL     1      22.923 -40.754   4.531  0.00  0.00    +0.000 A 
ATOM      8  C   UNL     1      22.828 -40.723   5.893  0.00  0.00    +0.000 A 
ATOM      9  C   UNL     1      22.178 -41.735   6.657  0.00  0.00    +0.000 A 
BRANCH   4  11
ATOM     10  N   UNL     1      19.648 -44.039   6.841  0.00  0.00    +0.000 NA
ATOM     11  C   UNL     1      20.956 -43.945   6.571  0.00  0.00    +0.000 A 
ATOM     12  C   UNL     1      21.697 -45.074   6.946  0.00  0.00    +0.000 A 
ATOM     13  C   UNL     1      21.106 -46.182   7.542  0.00  0.00    +0.000 A 
ATOM     14  C   UNL     1      19.762 -46.212   7.792  0.00  0.00    +0.000 A 
ATOM     15  C   UNL     1      19.046 -45.092   7.418  0.00  0.00    +0.000 A 
ATOM     16  C   UNL     1      17.692 -45.118   7.700  0.00  0.00    +0.000 A 
ATOM     17  C   UNL     1      17.065 -46.180   8.314  0.00  0.00    +0.000 A 
ATOM     18  C   UNL     1      17.791 -47.283   8.675  0.00  0.00    +0.000 A 
ATOM     19  C   UNL     1      19.141 -47.293   8.411  0.00  0.00    +0.000 A 
ATOM     20  C   UNL     1      23.159 -45.148   6.767  0.00  0.00    +0.000 C 
BRANCH  13  21
ATOM     21  C   UNL     1      21.872 -47.366   7.932  0.00  0.00    +0.000 C 
ATOM     22  O   UNL     1      22.021 -48.305   7.126  0.00  0.00    +0.000 OA
BRANCH  21  23
ATOM     23  O   UNL     1      22.450 -47.485   9.191  0.00  0.00    +0.000 OA
ATOM     24  H   UNL     1      22.953 -48.331   9.460  0.00  0.00    +0.000 HD
ENDBRANCH  21  23
ENDBRANCH  13  21
ENDBRANCH   4  11
ENDBRANCH   1   9
BRANCH   1  25
ATOM     25  C   UNL     1      21.024 -40.709   8.523  0.00  0.00    +0.000 A 
ATOM     26  C   UNL     1      20.929 -39.388   8.670  0.00  0.00    +0.000 A 
ATOM     27  C   UNL     1      19.769 -38.764   9.157  0.00  0.00    +0.000 A 
ATOM     28  C   UNL     1      18.674 -39.537   9.502  0.00  0.00    +0.000 A 
ATOM     29  C   UNL     1      18.744 -40.898   9.362  0.00  0.00    +0.000 A 
ATOM     30  C   UNL     1      19.908 -41.477   8.877  0.00  0.00    +0.000 A 
BRANCH  28  31
ATOM     31  O   UNL     1      17.512 -38.920   9.992  0.00  0.00    +0.000 OA
ATOM     32  C   UNL     1      17.618 -37.640  10.578  0.00  0.00    +0.000 C 
ENDBRANCH  28  31
BRANCH  26  33
ATOM     33  O   UNL     1      22.002 -38.537   8.337  0.00  0.00    +0.000 OA
ATOM     34  C   UNL     1      21.828 -37.570   7.328  0.00  0.00    +0.000 C 
ENDBRANCH  26  33
ENDBRANCH   1  25
BRANCH   2  35
ATOM     35  C   UNL     1      24.453 -42.273   8.961  0.00  0.00    +0.000 C 
BRANCH  35  36
ATOM     36  N   UNL     1      25.293 -41.746  10.037  0.00  0.00    +0.000 NA
ATOM     37  H   UNL     1      24.622 -41.363  10.744  0.00  0.00    +0.000 HD
BRANCH  36  38
ATOM     38  C   UNL     1      26.188 -42.713  10.560  0.00  0.00    +0.000 C 
BRANCH  38  39
ATOM     39  C   UNL     1      25.500 -43.850  11.199  0.00  0.00    +0.000 A 
ATOM     40  S   UNL     1      25.466 -45.544  10.731  0.00  0.00    +0.000 S 
ATOM     41  C   UNL     1      24.414 -46.124  12.097  0.00  0.00    +0.000 A 
ATOM     42  C   UNL     1      24.193 -44.955  12.780  0.00  0.00    +0.000 A 
ATOM     43  C   UNL     1      24.721 -43.821  12.350  0.00  0.00    +0.000 A 
ENDBRANCH  38  39
ENDBRANCH  36  38
ENDBRANCH  35  36
ENDBRANCH   2  35
TORSDOF 11
ENDMDL
