MODEL 1
REMARK VINA RESULT:   -10.443      0.000      0.000
REMARK INTER + INTRA:         -16.517
REMARK INTER:                 -16.243
REMARK INTRA:                  -0.274
REMARK UNBOUND:                -0.274
REMARK  Name = 
REMARK  12 active torsions:
REMARK  status: ('A' for Active; 'I' for Inactive)
REMARK    1  A    between atoms: N_1  and  C_22
REMARK    2  A    between atoms: N_5  and  N_6
REMARK    3  A    between atoms: N_6  and  C_7
REMARK    4  A    between atoms: C_14  and  C_16
REMARK    5  A    between atoms: C_22  and  N_24
REMARK    6  A    between atoms: N_24  and  C_25
REMARK    7  A    between atoms: C_25  and  C_26
REMARK    8  A    between atoms: N_28  and  C_29
REMARK    9  A    between atoms: C_30  and  C_36
REMARK   10  A    between atoms: C_33  and  C_35
REMARK   11  A    between atoms: C_37  and  C_43
REMARK   12  A    between atoms: C_43  and  O_45
REMARK                            x       y       z     vdW  Elec       q    Type
REMARK                         _______ _______ _______ _____ _____    ______ ____
ROOT
ATOM      1  N   UNL     1      19.418 -40.961   7.107  0.00  0.00    +0.000 N 
ATOM      2  H   UNL     1      18.937 -40.798   6.156  0.00  0.00    +0.000 HD
ENDROOT
BRANCH   1   3
ATOM      3  C   UNL     1      20.697 -40.461   7.163  0.00  0.00    +0.000 C 
ATOM      4  C   UNL     1      20.665 -39.812   8.641  0.00  0.00    +0.000 C 
ATOM      5  C   UNL     1      20.565 -38.345   8.327  0.00  0.00    +0.000 C 
ATOM      6  O   UNL     1      19.890 -38.346   7.122  0.00  0.00    +0.000 OA
ATOM      7  C   UNL     1      20.804 -39.084   6.392  0.00  0.00    +0.000 C 
ATOM      8  C   UNL     1      22.099 -38.504   6.761  0.00  0.00    +0.000 C 
ATOM      9  C   UNL     1      21.903 -37.863   7.928  0.00  0.00    +0.000 C 
BRANCH   3  10
ATOM     10  C   UNL     1      21.927 -41.130   6.913  0.00  0.00    +0.000 C 
ATOM     11  O   UNL     1      22.787 -40.872   6.091  0.00  0.00    +0.000 OA
ATOM     12  N   UNL     1      22.134 -42.374   7.748  0.00  0.00    +0.000 N 
ATOM     13  H   UNL     1      21.588 -42.575   8.546  0.00  0.00    +0.000 HD
BRANCH  12  14
ATOM     14  C   UNL     1      23.212 -43.213   7.247  0.00  0.00    +0.000 A 
ATOM     15  C   UNL     1      23.052 -44.222   6.383  0.00  0.00    +0.000 A 
ATOM     16  C   UNL     1      24.167 -45.088   6.277  0.00  0.00    +0.000 A 
ATOM     17  C   UNL     1      25.350 -44.958   6.984  0.00  0.00    +0.000 A 
ATOM     18  C   UNL     1      25.442 -43.876   7.899  0.00  0.00    +0.000 A 
ATOM     19  C   UNL     1      24.373 -43.100   7.950  0.00  0.00    +0.000 A 
ATOM     20  C   UNL     1      26.636 -43.676   8.813  0.00  0.00    +0.000 C 
ATOM     21  C   UNL     1      21.887 -44.278   5.476  0.00  0.00    +0.000 C 
ENDBRANCH  12  14
ENDBRANCH   3  10
BRANCH   4  22
ATOM     22  C   UNL     1      21.607 -40.162   9.603  0.00  0.00    +0.000 C 
ATOM     23  O   UNL     1      21.565 -41.253  10.259  0.00  0.00    +0.000 OA
BRANCH  22  24
ATOM     24  O   UNL     1      22.680 -39.287   9.886  0.00  0.00    +0.000 OA
ATOM     25  H   UNL     1      22.603 -38.707  10.732  0.00  0.00    +0.000 HD
ENDBRANCH  22  24
ENDBRANCH   4  22
ENDBRANCH   1   3
BRANCH   1  26
ATOM     26  C   UNL     1      18.771 -41.868   8.035  0.00  0.00    +0.000 C 
ATOM     27  S   UNL     1      19.134 -43.381   8.290  0.00  0.00    +0.000 S 
BRANCH  26  28
ATOM     28  N   UNL     1      17.513 -41.227   8.312  0.00  0.00    +0.000 N 
ATOM     29  C   UNL     1      16.867 -40.186   7.673  0.00  0.00    +0.000 C 
ATOM     30  O   UNL     1      17.055 -39.687   6.574  0.00  0.00    +0.000 OA
ATOM     31  C   UNL     1      15.820 -39.826   8.618  0.00  0.00    +0.000 C 
ATOM     32  N   UNL     1      15.187 -38.739   8.516  0.00  0.00    +0.000 NA
ATOM     33  C   UNL     1      15.844 -40.744   9.705  0.00  0.00    +0.000 C 
ATOM     34  N   UNL     1      16.855 -41.588   9.550  0.00  0.00    +0.000 NA
BRANCH  33  35
ATOM     35  C   UNL     1      14.775 -41.230  10.642  0.00  0.00    +0.000 A 
ATOM     36  C   UNL     1      14.026 -42.295  10.194  0.00  0.00    +0.000 A 
ATOM     37  C   UNL     1      13.294 -43.087  11.049  0.00  0.00    +0.000 A 
ATOM     38  C   UNL     1      13.322 -42.820  12.383  0.00  0.00    +0.000 A 
ATOM     39  C   UNL     1      13.988 -41.715  12.848  0.00  0.00    +0.000 A 
ATOM     40  C   UNL     1      14.715 -40.900  11.926  0.00  0.00    +0.000 A 
ENDBRANCH  33  35
BRANCH  32  41
ATOM     41  N   UNL     1      14.223 -38.481   9.549  0.00  0.00    +0.000 N 
ATOM     42  H   UNL     1      13.397 -38.949   9.785  0.00  0.00    +0.000 HD
BRANCH  41  43
ATOM     43  C   UNL     1      14.676 -37.366  10.404  0.00  0.00    +0.000 A 
ATOM     44  C   UNL     1      15.894 -36.866  10.398  0.00  0.00    +0.000 A 
ATOM     45  C   UNL     1      16.049 -35.608  10.918  0.00  0.00    +0.000 A 
ATOM     46  C   UNL     1      14.968 -34.870  11.350  0.00  0.00    +0.000 A 
ATOM     47 CL   UNL     1      15.083 -33.154  11.632  0.00  0.00    +0.000 Cl
ATOM     48  C   UNL     1      13.697 -35.424  11.315  0.00  0.00    +0.000 A 
ATOM     49  C   UNL     1      13.531 -36.671  10.893  0.00  0.00    +0.000 A 
ENDBRANCH  41  43
ENDBRANCH  32  41
ENDBRANCH  26  28
ENDBRANCH   1  26
TORSDOF 10
ENDMDL
