MODEL 1
REMARK VINA RESULT:    -8.693      0.000      0.000
REMARK INTER + INTRA:         -17.448
REMARK INTER:                 -13.775
REMARK INTRA:                  -3.674
REMARK UNBOUND:                -3.674
REMARK  Name = 
REMARK  12 active torsions:
REMARK  status: ('A' for Active; 'I' for Inactive)
REMARK    1  A    between atoms: S_1  and  C_4
REMARK    2  A    between atoms: S_1  and  N_24
REMARK    3  A    between atoms: C_7  and  N_8
REMARK    4  A    between atoms: C_9  and  C_11
REMARK    5  A    between atoms: C_11  and  C_21
REMARK    6  A    between atoms: C_15  and  C_17
REMARK    7  A    between atoms: C_17  and  C_18
REMARK    8  A    between atoms: C_18  and  C_19
REMARK    9  A    between atoms: C_19  and  C_20
REMARK   10  A    between atoms: N_24  and  N_25
REMARK   11  A    between atoms: C_26  and  C_39
REMARK   12  A    between atoms: C_30  and  C_31
REMARK                            x       y       z     vdW  Elec       q    Type
REMARK                         _______ _______ _______ _____ _____    ______ ____
ROOT
ATOM      1  S   UNL     1      17.482 -37.138  10.002  0.00  0.00    +0.000 S 
ATOM      2  O   UNL     1      18.439 -36.611  11.031  0.00  0.00    +0.000 OA
ATOM      3  O   UNL     1      17.172 -35.992   9.078  0.00  0.00    +0.000 OA
ENDROOT
BRANCH   1   4
ATOM      4  C   UNL     1      18.375 -38.296   9.042  0.00  0.00    +0.000 A 
ATOM      5  C   UNL     1      19.024 -39.330   9.656  0.00  0.00    +0.000 A 
ATOM      6  C   UNL     1      19.732 -40.245   8.955  0.00  0.00    +0.000 A 
ATOM      7  C   UNL     1      19.838 -40.185   7.568  0.00  0.00    +0.000 A 
ATOM      8  C   UNL     1      19.188 -39.153   6.965  0.00  0.00    +0.000 A 
ATOM      9  C   UNL     1      18.449 -38.192   7.668  0.00  0.00    +0.000 A 
BRANCH   7  10
ATOM     10  N   UNL     1      20.592 -41.169   6.893  0.00  0.00    +0.000 N 
ATOM     11  C   UNL     1      21.896 -41.026   6.376  0.00  0.00    +0.000 C 
ATOM     12  O   UNL     1      22.509 -39.965   6.487  0.00  0.00    +0.000 OA
ATOM     13  H   UNL     1      20.147 -42.137   6.743  0.00  0.00    +0.000 HD
BRANCH  11  14
ATOM     14  C   UNL     1      22.599 -42.143   5.673  0.00  0.00    +0.000 C 
ATOM     15  O   UNL     1      23.528 -42.768   6.533  0.00  0.00    +0.000 OA
ATOM     16  C   UNL     1      23.723 -44.059   6.067  0.00  0.00    +0.000 C 
ATOM     17  O   UNL     1      24.721 -44.795   6.304  0.00  0.00    +0.000 OA
ATOM     18  C   UNL     1      22.577 -44.461   5.235  0.00  0.00    +0.000 C 
ATOM     19  C   UNL     1      21.660 -43.260   5.319  0.00  0.00    +0.000 C 
ATOM     20  C   UNL     1      23.288 -41.668   4.429  0.00  0.00    +0.000 C 
BRANCH  18  21
ATOM     21  C   UNL     1      21.828 -45.660   5.792  0.00  0.00    +0.000 C 
BRANCH  21  22
ATOM     22  C   UNL     1      20.426 -45.309   6.193  0.00  0.00    +0.000 C 
BRANCH  22  23
ATOM     23  C   UNL     1      20.282 -45.708   7.663  0.00  0.00    +0.000 C 
ATOM     24  C   UNL     1      19.997 -44.484   8.484  0.00  0.00    +0.000 C 
ENDBRANCH  22  23
ENDBRANCH  21  22
ENDBRANCH  18  21
ENDBRANCH  11  14
ENDBRANCH   7  10
ENDBRANCH   1   4
BRANCH   1  25
ATOM     25  N   UNL     1      16.125 -37.893  10.666  0.00  0.00    +0.000 NA
ATOM     26  H   UNL     1      16.268 -38.917  10.697  0.00  0.00    +0.000 HD
BRANCH  25  27
ATOM     27  N   UNL     1      14.900 -37.634  10.053  0.00  0.00    +0.000 NA
ATOM     28  C   UNL     1      14.254 -38.909   9.818  0.00  0.00    +0.000 C 
ATOM     29  C   UNL     1      13.697 -39.448  11.039  0.00  0.00    +0.000 A 
ATOM     30  C   UNL     1      13.699 -38.935  12.278  0.00  0.00    +0.000 A 
ATOM     31  C   UNL     1      14.401 -37.566  12.365  0.00  0.00    +0.000 C 
ATOM     32  C   UNL     1      14.025 -36.951  11.033  0.00  0.00    +0.000 C 
ATOM     33  C   UNL     1      13.104 -39.613  13.280  0.00  0.00    +0.000 A 
ATOM     34  C   UNL     1      12.524 -40.787  13.016  0.00  0.00    +0.000 A 
ATOM     35  S   UNL     1      12.817 -40.974  11.255  0.00  0.00    +0.000 S 
BRANCH  28  36
ATOM     36  C   UNL     1      15.113 -39.909   9.144  0.00  0.00    +0.000 A 
ATOM     37  C   UNL     1      15.757 -40.919   9.812  0.00  0.00    +0.000 A 
ATOM     38  C   UNL     1      16.531 -41.879   9.181  0.00  0.00    +0.000 A 
ATOM     39  C   UNL     1      16.687 -41.854   7.817  0.00  0.00    +0.000 A 
ATOM     40  C   UNL     1      16.043 -40.834   7.113  0.00  0.00    +0.000 A 
ATOM     41  C   UNL     1      15.277 -39.888   7.752  0.00  0.00    +0.000 A 
ATOM     42  F   UNL     1      17.433 -42.773   7.180  0.00  0.00    +0.000 F 
ENDBRANCH  28  36
BRANCH  32  43
ATOM     43  C   UNL     1      14.159 -35.495  11.029  0.00  0.00    +0.000 A 
ATOM     44  N   UNL     1      14.999 -34.596  11.084  0.00  0.00    +0.000 NA
ATOM     45  C   UNL     1      14.764 -33.323  11.065  0.00  0.00    +0.000 A 
ATOM     46  C   UNL     1      13.453 -32.930  10.973  0.00  0.00    +0.000 A 
ATOM     47  S   UNL     1      12.636 -34.559  10.921  0.00  0.00    +0.000 S 
ENDBRANCH  32  43
ENDBRANCH  25  27
ENDBRANCH   1  25
TORSDOF 10
ENDMDL
