MODEL 1
REMARK VINA RESULT:    -9.063      0.000      0.000
REMARK INTER + INTRA:         -14.697
REMARK INTER:                 -13.037
REMARK INTRA:                  -1.661
REMARK UNBOUND:                -1.661
REMARK  Name = 
REMARK  13 active torsions:
REMARK  status: ('A' for Active; 'I' for Inactive)
REMARK    1  A    between atoms: N_1  and  C_20
REMARK    2  A    between atoms: N_5  and  N_6
REMARK    3  A    between atoms: N_6  and  C_7
REMARK    4  A    between atoms: C_8  and  C_16
REMARK    5  A    between atoms: C_9  and  N_10
REMARK    6  A    between atoms: C_17  and  C_19
REMARK    7  A    between atoms: C_20  and  N_22
REMARK    8  A    between atoms: N_22  and  N_23
REMARK    9  A    between atoms: C_24  and  C_26
REMARK   10  A    between atoms: C_26  and  C_27
REMARK   11  A    between atoms: C_26  and  C_28
REMARK   12  A    between atoms: C_32  and  N_36
REMARK   13  A    between atoms: C_33  and  C_35
REMARK                            x       y       z     vdW  Elec       q    Type
REMARK                         _______ _______ _______ _____ _____    ______ ____
ROOT
ATOM      1  N   UNL     1      13.857 -40.486   9.647  0.00  0.00    +0.000 N 
ATOM      2  C   UNL     1      15.029 -40.916  10.330  0.00  0.00    +0.000 C 
ATOM      3  O   UNL     1      15.189 -41.214  11.535  0.00  0.00    +0.000 OA
ATOM      4  C   UNL     1      16.086 -40.953   9.313  0.00  0.00    +0.000 C 
ATOM      5  N   UNL     1      17.315 -41.279   9.416  0.00  0.00    +0.000 NA
ATOM      6  C   UNL     1      15.445 -40.532   8.083  0.00  0.00    +0.000 C 
ATOM      7  N   UNL     1      14.188 -40.279   8.321  0.00  0.00    +0.000 NA
ATOM      8  C   UNL     1      16.136 -40.408   6.776  0.00  0.00    +0.000 C 
ENDROOT
BRANCH   5   9
ATOM      9  N   UNL     1      18.255 -41.290   8.397  0.00  0.00    +0.000 N 
ATOM     10  H   UNL     1      18.187 -41.836   7.532  0.00  0.00    +0.000 HD
BRANCH   9  11
ATOM     11  C   UNL     1      19.397 -40.481   8.568  0.00  0.00    +0.000 A 
ATOM     12  C   UNL     1      20.691 -40.840   8.229  0.00  0.00    +0.000 A 
ATOM     13  C   UNL     1      21.710 -39.943   8.462  0.00  0.00    +0.000 A 
ATOM     14  C   UNL     1      21.487 -38.684   9.024  0.00  0.00    +0.000 A 
ATOM     15  C   UNL     1      20.222 -38.317   9.361  0.00  0.00    +0.000 A 
ATOM     16  C   UNL     1      19.212 -39.223   9.125  0.00  0.00    +0.000 A 
ATOM     17  C   UNL     1      20.953 -42.156   7.614  0.00  0.00    +0.000 C 
BRANCH  13  18
ATOM     18  N   UNL     1      23.055 -40.255   8.144  0.00  0.00    +0.000 N 
ATOM     19  O   UNL     1      23.542 -39.878   7.059  0.00  0.00    +0.000 OA
ATOM     20  O   UNL     1      23.814 -40.971   9.028  0.00  0.00    +0.000 OA
ENDBRANCH  13  18
ENDBRANCH   9  11
ENDBRANCH   5   9
BRANCH   1  21
ATOM     21  C   UNL     1      12.564 -40.326  10.269  0.00  0.00    +0.000 C 
ATOM     22  S   UNL     1      11.532 -41.592  10.355  0.00  0.00    +0.000 S 
BRANCH  21  23
ATOM     23  N   UNL     1      12.149 -39.093  10.811  0.00  0.00    +0.000 N 
ATOM     24  H   UNL     1      11.321 -38.632  10.359  0.00  0.00    +0.000 HD
BRANCH  23  25
ATOM     25  N   UNL     1      12.759 -38.467  11.881  0.00  0.00    +0.000 N 
ATOM     26  C   UNL     1      12.517 -38.916  13.198  0.00  0.00    +0.000 C 
ATOM     27  O   UNL     1      13.111 -38.381  14.165  0.00  0.00    +0.000 OA
ATOM     28  C   UNL     1      13.647 -37.387  11.681  0.00  0.00    +0.000 A 
ATOM     29  N   UNL     1      13.217 -36.133  11.855  0.00  0.00    +0.000 NA
ATOM     30  C   UNL     1      13.996 -35.066  11.698  0.00  0.00    +0.000 A 
ATOM     31  C   UNL     1      15.304 -35.262  11.340  0.00  0.00    +0.000 A 
ATOM     32  C   UNL     1      15.797 -36.522  11.149  0.00  0.00    +0.000 A 
ATOM     33  C   UNL     1      14.969 -37.600  11.318  0.00  0.00    +0.000 A 
ATOM     34  C   UNL     1      17.225 -36.674  10.767  0.00  0.00    +0.000 C 
BRANCH  26  35
ATOM     35  C   UNL     1      11.569 -40.015  13.503  0.00  0.00    +0.000 C 
ATOM     36  C   UNL     1      10.407 -39.552  14.354  0.00  0.00    +0.000 C 
ATOM     37  C   UNL     1      12.275 -41.195  14.136  0.00  0.00    +0.000 C 
ENDBRANCH  26  35
BRANCH  31  38
ATOM     38  N   UNL     1      16.144 -34.118  11.169  0.00  0.00    +0.000 N 
ATOM     39  H   UNL     1      16.191 -33.624  10.263  0.00  0.00    +0.000 HD
ATOM     40  H   UNL     1      16.721 -33.768  11.950  0.00  0.00    +0.000 HD
ENDBRANCH  31  38
ENDBRANCH  23  25
ENDBRANCH  21  23
ENDBRANCH   1  21
TORSDOF 8
ENDMDL
