MODEL 1
REMARK VINA RESULT:    -8.671      0.000      0.000
REMARK INTER + INTRA:         -20.335
REMARK INTER:                 -16.021
REMARK INTRA:                  -4.314
REMARK UNBOUND:                -4.314
REMARK  Name = 
REMARK  17 active torsions:
REMARK  status: ('A' for Active; 'I' for Inactive)
REMARK    1  A    between atoms: N_1  and  C_2
REMARK    2  A    between atoms: C_4  and  C_5
REMARK    3  A    between atoms: C_5  and  O_7
REMARK    4  A    between atoms: C_14  and  C_15
REMARK    5  A    between atoms: C_15  and  N_16
REMARK    6  A    between atoms: C_15  and  C_21
REMARK    7  A    between atoms: C_15  and  C_31
REMARK    8  A    between atoms: C_21  and  C_22
REMARK    9  A    between atoms: C_22  and  C_24
REMARK   10  A    between atoms: C_27  and  C_30
REMARK   11  A    between atoms: C_31  and  O_33
REMARK   12  A    between atoms: O_33  and  N_34
REMARK   13  A    between atoms: N_34  and  C_35
REMARK   14  A    between atoms: N_34  and  C_43
REMARK   15  A    between atoms: C_35  and  C_36
REMARK   16  A    between atoms: C_35  and  C_42
REMARK   17  A    between atoms: C_43  and  C_44
REMARK                            x       y       z     vdW  Elec       q    Type
REMARK                         _______ _______ _______ _____ _____    ______ ____
ROOT
ATOM      1  C   UNL     1      20.209 -40.314   8.670  0.00  0.00    +0.000 C 
ENDROOT
BRANCH   1   6
ATOM      2  N   UNL     1      21.387 -40.277   6.408  0.00  0.00    +0.000 N 
ATOM      3  C   UNL     1      22.052 -38.998   6.239  0.00  0.00    +0.000 C 
ATOM      4  C   UNL     1      21.036 -37.933   6.446  0.00  0.00    +0.000 C 
ATOM      5  C   UNL     1      19.766 -38.698   6.808  0.00  0.00    +0.000 C 
ATOM      6  C   UNL     1      20.258 -40.088   7.248  0.00  0.00    +0.000 C 
BRANCH   2   7
ATOM      7  C   UNL     1      21.870 -41.442   5.722  0.00  0.00    +0.000 A 
ATOM      8  C   UNL     1      21.612 -41.700   4.399  0.00  0.00    +0.000 A 
ATOM      9  C   UNL     1      22.065 -42.825   3.742  0.00  0.00    +0.000 A 
ATOM     10  C   UNL     1      22.824 -43.739   4.474  0.00  0.00    +0.000 A 
ATOM     11  C   UNL     1      23.088 -43.490   5.792  0.00  0.00    +0.000 A 
ATOM     12  C   UNL     1      22.617 -42.346   6.429  0.00  0.00    +0.000 A 
BRANCH   9  13
ATOM     13  C   UNL     1      21.773 -43.070   2.335  0.00  0.00    +0.000 C 
ATOM     14  O   UNL     1      20.633 -42.734   1.895  0.00  0.00    +0.000 OA
BRANCH  13  15
ATOM     15  O   UNL     1      22.716 -43.649   1.525  0.00  0.00    +0.000 OA
ATOM     16  H   UNL     1      22.694 -44.658   1.307  0.00  0.00    +0.000 HD
ENDBRANCH  13  15
ENDBRANCH   9  13
ENDBRANCH   2   7
ENDBRANCH   1   6
BRANCH   1  17
ATOM     17  N   UNL     1      21.470 -40.621   9.354  0.00  0.00    +0.000 N 
ATOM     18  N   UNL     1      22.668 -40.209   9.298  0.00  0.00    +0.000 NA
ATOM     19  C   UNL     1      23.463 -40.834  10.163  0.00  0.00    +0.000 A 
ATOM     20  N   UNL     1      22.695 -41.715  10.819  0.00  0.00    +0.000 NA
ATOM     21  C   UNL     1      21.462 -41.590  10.324  0.00  0.00    +0.000 A 
ENDBRANCH   1  17
BRANCH   1  22
ATOM     22  C   UNL     1      19.625 -39.167   9.405  0.00  0.00    +0.000 C 
ATOM     23  O   UNL     1      20.327 -38.173   9.765  0.00  0.00    +0.000 OA
BRANCH  22  24
ATOM     24  O   UNL     1      18.292 -39.117   9.737  0.00  0.00    +0.000 OA
BRANCH  24  25
ATOM     25  N   UNL     1      17.484 -38.020   9.483  0.00  0.00    +0.000 NA
BRANCH  25  26
ATOM     26  C   UNL     1      16.219 -38.521   9.085  0.00  0.00    +0.000 C 
ATOM     27  C   UNL     1      16.238 -39.338   7.818  0.00  0.00    +0.000 C 
BRANCH  26  28
ATOM     28  C   UNL     1      15.401 -39.164  10.125  0.00  0.00    +0.000 A 
ATOM     29  C   UNL     1      15.675 -40.411  10.644  0.00  0.00    +0.000 A 
ATOM     30  C   UNL     1      14.888 -40.981  11.624  0.00  0.00    +0.000 A 
ATOM     31  C   UNL     1      13.791 -40.307  12.118  0.00  0.00    +0.000 A 
ATOM     32  C   UNL     1      13.508 -39.063  11.609  0.00  0.00    +0.000 A 
ATOM     33  C   UNL     1      14.304 -38.494  10.621  0.00  0.00    +0.000 A 
ENDBRANCH  26  28
ENDBRANCH  25  26
BRANCH  25  34
ATOM     34  C   UNL     1      17.557 -37.170  10.608  0.00  0.00    +0.000 C 
BRANCH  34  35
ATOM     35  C   UNL     1      17.058 -35.805  10.465  0.00  0.00    +0.000 A 
ATOM     36  C   UNL     1      16.006 -35.344  11.225  0.00  0.00    +0.000 A 
ATOM     37  C   UNL     1      15.553 -34.063  11.078  0.00  0.00    +0.000 A 
ATOM     38  N   UNL     1      16.131 -33.247  10.191  0.00  0.00    +0.000 NA
ATOM     39  C   UNL     1      17.150 -33.638   9.429  0.00  0.00    +0.000 A 
ATOM     40  C   UNL     1      17.615 -34.912   9.562  0.00  0.00    +0.000 A 
ENDBRANCH  34  35
ENDBRANCH  25  34
ENDBRANCH  24  25
ENDBRANCH  22  24
ENDBRANCH   1  22
BRANCH   1  41
ATOM     41  C   UNL     1      19.348 -41.519   9.118  0.00  0.00    +0.000 C 
BRANCH  41  42
ATOM     42  C   UNL     1      18.891 -42.363   8.017  0.00  0.00    +0.000 C 
ATOM     43  O   UNL     1      17.892 -41.989   7.318  0.00  0.00    +0.000 OA
BRANCH  42  44
ATOM     44  C   UNL     1      19.503 -43.625   7.651  0.00  0.00    +0.000 A 
ATOM     45  C   UNL     1      19.310 -44.179   6.417  0.00  0.00    +0.000 A 
ATOM     46  C   UNL     1      19.900 -45.376   6.061  0.00  0.00    +0.000 A 
ATOM     47  C   UNL     1      20.702 -46.042   6.956  0.00  0.00    +0.000 A 
ATOM     48  C   UNL     1      20.909 -45.508   8.195  0.00  0.00    +0.000 A 
ATOM     49  C   UNL     1      20.306 -44.290   8.549  0.00  0.00    +0.000 A 
ATOM     50  C   UNL     1      21.329 -47.342   6.534  0.00  0.00    +0.000 C 
ENDBRANCH  42  44
ENDBRANCH  41  42
ENDBRANCH   1  41
TORSDOF 15
ENDMDL
