MODEL 1
REMARK VINA RESULT:   -10.157      0.000      0.000
REMARK INTER + INTRA:         -15.319
REMARK INTER:                 -14.016
REMARK INTRA:                  -1.303
REMARK UNBOUND:                -1.303
REMARK  Name = 
REMARK  7 active torsions:
REMARK  status: ('A' for Active; 'I' for Inactive)
REMARK    1  A    between atoms: N_14  and  C_19
REMARK    2  A    between atoms: C_19  and  C_20
REMARK    3  A    between atoms: C_20  and  O_22
REMARK    4  A    between atoms: O_22  and  C_23
REMARK    5  A    between atoms: C_23  and  C_39
REMARK    6  A    between atoms: C_33  and  C_34
REMARK    7  A    between atoms: C_34  and  O_36
REMARK                            x       y       z     vdW  Elec       q    Type
REMARK                         _______ _______ _______ _____ _____    ______ ____
ROOT
ATOM      1  C   UNL     1      24.632 -44.288   9.961  0.00  0.00    +0.000 C 
ATOM      2  N   UNL     1      25.984 -43.717   9.707  0.00  0.00    +0.000 N 
ATOM      3  C   UNL     1      26.867 -43.350  10.748  0.00  0.00    +0.000 A 
ATOM      4  C   UNL     1      26.935 -44.154  11.885  0.00  0.00    +0.000 A 
ATOM      5  C   UNL     1      26.035 -45.361  11.781  0.00  0.00    +0.000 C 
ATOM      6  C   UNL     1      24.710 -45.001  11.212  0.00  0.00    +0.000 C 
ATOM      7  C   UNL     1      24.327 -43.996  12.354  0.00  0.00    +0.000 C 
ATOM      8  C   UNL     1      24.681 -44.879  13.531  0.00  0.00    +0.000 C 
ATOM      9  C   UNL     1      25.671 -45.676  13.207  0.00  0.00    +0.000 C 
ATOM     10  C   UNL     1      27.747 -43.866  12.938  0.00  0.00    +0.000 A 
ATOM     11  C   UNL     1      28.569 -42.730  12.925  0.00  0.00    +0.000 A 
ATOM     12  C   UNL     1      28.508 -41.936  11.812  0.00  0.00    +0.000 A 
ATOM     13  C   UNL     1      27.673 -42.237  10.738  0.00  0.00    +0.000 A 
ATOM     14  H   UNL     1      26.332 -43.549   8.742  0.00  0.00    +0.000 HD
ENDROOT
BRANCH   1  15
ATOM     15  C   UNL     1      24.250 -44.870   8.685  0.00  0.00    +0.000 A 
ATOM     16  C   UNL     1      23.079 -45.463   8.330  0.00  0.00    +0.000 A 
ATOM     17  C   UNL     1      22.875 -46.052   7.082  0.00  0.00    +0.000 A 
ATOM     18  C   UNL     1      23.843 -46.071   6.134  0.00  0.00    +0.000 A 
ATOM     19  C   UNL     1      25.035 -45.491   6.438  0.00  0.00    +0.000 A 
ATOM     20  C   UNL     1      25.239 -44.908   7.670  0.00  0.00    +0.000 A 
ATOM     21 CL   UNL     1      23.568 -46.810   4.585  0.00  0.00    +0.000 Cl
ATOM     22 CL   UNL     1      21.756 -45.476   9.449  0.00  0.00    +0.000 Cl
ENDBRANCH   1  15
BRANCH  11  23
ATOM     23  C   UNL     1      29.430 -42.438  14.057  0.00  0.00    +0.000 C 
ATOM     24  O   UNL     1      29.565 -43.298  14.963  0.00  0.00    +0.000 OA
BRANCH  23  25
ATOM     25  O   UNL     1      30.120 -41.251  14.195  0.00  0.00    +0.000 OA
ATOM     26  H   UNL     1      30.003 -40.624  14.991  0.00  0.00    +0.000 HD
ENDBRANCH  23  25
ENDBRANCH  11  23
BRANCH   1  27
ATOM     27  O   UNL     1      23.915 -43.033  10.084  0.00  0.00    +0.000 OA
BRANCH  27  28
ATOM     28  C   UNL     1      23.878 -42.106   9.048  0.00  0.00    +0.000 C 
ATOM     29  O   UNL     1      24.804 -41.276   9.068  0.00  0.00    +0.000 OA
BRANCH  28  30
ATOM     30  C   UNL     1      22.808 -42.123   8.011  0.00  0.00    +0.000 C 
BRANCH  30  44
ATOM     31  C   UNL     1      17.607 -39.084   7.875  0.00  0.00    +0.000 C 
ATOM     32  O   UNL     1      16.743 -39.688   7.145  0.00  0.00    +0.000 OA
ATOM     33  N   UNL     1      18.985 -39.147   7.597  0.00  0.00    +0.000 N 
ATOM     34  C   UNL     1      19.943 -38.766   8.594  0.00  0.00    +0.000 C 
ATOM     35  N   UNL     1      19.395 -37.753   9.502  0.00  0.00    +0.000 N 
ATOM     36  C   UNL     1      18.027 -37.669   9.808  0.00  0.00    +0.000 A 
ATOM     37  C   UNL     1      17.130 -38.323   9.012  0.00  0.00    +0.000 A 
ATOM     38  C   UNL     1      15.783 -38.245   9.307  0.00  0.00    +0.000 A 
ATOM     39  C   UNL     1      15.334 -37.521  10.388  0.00  0.00    +0.000 A 
ATOM     40  C   UNL     1      16.260 -36.868  11.181  0.00  0.00    +0.000 A 
ATOM     41  C   UNL     1      17.611 -36.936  10.899  0.00  0.00    +0.000 A 
ATOM     42  C   UNL     1      20.248 -39.984   9.415  0.00  0.00    +0.000 C 
ATOM     43  C   UNL     1      21.671 -40.435   9.390  0.00  0.00    +0.000 C 
ATOM     44  N   UNL     1      22.073 -40.882   8.063  0.00  0.00    +0.000 N 
ATOM     45  C   UNL     1      21.811 -40.213   6.842  0.00  0.00    +0.000 C 
ATOM     46  O   UNL     1      21.826 -40.941   5.831  0.00  0.00    +0.000 OA
ATOM     47  C   UNL     1      21.529 -38.790   6.625  0.00  0.00    +0.000 C 
ATOM     48  C   UNL     1      21.142 -38.144   7.928  0.00  0.00    +0.000 C 
ATOM     49  H   UNL     1      19.303 -39.471   6.671  0.00  0.00    +0.000 HD
ATOM     50  H   UNL     1      20.085 -37.089   9.919  0.00  0.00    +0.000 HD
ENDBRANCH  30  44
ENDBRANCH  28  30
ENDBRANCH  27  28
ENDBRANCH   1  27
TORSDOF 7
ENDMDL
