MODEL 1
REMARK VINA RESULT:    -8.055      0.000      0.000
REMARK INTER + INTRA:         -13.983
REMARK INTER:                 -16.060
REMARK INTRA:                   2.077
REMARK UNBOUND:                 2.077
REMARK  Name = 
REMARK  20 active torsions:
REMARK  status: ('A' for Active; 'I' for Inactive)
REMARK    1  A    between atoms: N_1  and  C_12
REMARK    2  A    between atoms: C_9  and  N_11
REMARK    3  A    between atoms: C_12  and  C_13
REMARK    4  A    between atoms: N_15  and  C_16
REMARK    5  A    between atoms: N_15  and  C_17
REMARK    6  A    between atoms: C_17  and  C_18
REMARK    7  A    between atoms: C_18  and  C_45
REMARK    8  A    between atoms: C_19  and  C_39
REMARK    9  A    between atoms: C_20  and  C_28
REMARK   10  A    between atoms: C_21  and  C_22
REMARK   11  A    between atoms: C_28  and  O_30
REMARK   12  A    between atoms: O_30  and  C_31
REMARK   13  A    between atoms: C_31  and  C_32
REMARK   14  A    between atoms: C_32  and  C_33
REMARK   15  A    between atoms: C_33  and  C_34
REMARK   16  A    between atoms: C_34  and  C_35
REMARK   17  A    between atoms: C_35  and  C_36
REMARK   18  A    between atoms: C_36  and  C_37
REMARK   19  A    between atoms: C_37  and  C_38
REMARK   20  A    between atoms: C_45  and  O_47
REMARK                            x       y       z     vdW  Elec       q    Type
REMARK                         _______ _______ _______ _____ _____    ______ ____
ROOT
ATOM      1  C   UNL     1      21.688 -40.990   8.609  0.00  0.00    +0.000 C 
ATOM      2  C   UNL     1      20.738 -41.489   7.502  0.00  0.00    +0.000 C 
ATOM      3  C   UNL     1      20.131 -42.348   8.495  0.00  0.00    +0.000 C 
ATOM      4  C   UNL     1      21.226 -42.274   9.418  0.00  0.00    +0.000 C 
ENDROOT
BRANCH   4   5
ATOM      5  C   UNL     1      22.366 -43.110   9.599  0.00  0.00    +0.000 A 
ATOM      6  C   UNL     1      23.194 -42.801  10.697  0.00  0.00    +0.000 A 
ATOM      7  C   UNL     1      24.307 -43.513  10.999  0.00  0.00    +0.000 A 
ATOM      8  C   UNL     1      24.692 -44.592  10.236  0.00  0.00    +0.000 A 
ATOM      9  C   UNL     1      23.890 -44.921   9.141  0.00  0.00    +0.000 A 
ATOM     10  C   UNL     1      22.763 -44.175   8.862  0.00  0.00    +0.000 A 
ENDBRANCH   4   5
BRANCH   2  11
ATOM     11  C   UNL     1      21.425 -41.894   6.296  0.00  0.00    +0.000 A 
ATOM     12  C   UNL     1      21.711 -43.138   5.823  0.00  0.00    +0.000 A 
ATOM     13  C   UNL     1      22.398 -43.378   4.639  0.00  0.00    +0.000 A 
ATOM     14  C   UNL     1      22.838 -42.335   3.859  0.00  0.00    +0.000 A 
ATOM     15  C   UNL     1      22.564 -41.063   4.310  0.00  0.00    +0.000 A 
ATOM     16  C   UNL     1      21.894 -40.852   5.466  0.00  0.00    +0.000 A 
ENDBRANCH   2  11
BRANCH   1  17
ATOM     17  C   UNL     1      23.102 -41.082   8.257  0.00  0.00    +0.000 C 
ATOM     18  O   UNL     1      23.618 -41.984   7.584  0.00  0.00    +0.000 OA
BRANCH  17  19
ATOM     19  O   UNL     1      24.007 -40.091   8.688  0.00  0.00    +0.000 OA
ATOM     20  H   UNL     1      24.703 -39.715   8.030  0.00  0.00    +0.000 HD
ENDBRANCH  17  19
ENDBRANCH   1  17
BRANCH   3  21
ATOM     21  C   UNL     1      19.330 -43.509   8.181  0.00  0.00    +0.000 C 
ATOM     22  O   UNL     1      19.733 -44.660   8.382  0.00  0.00    +0.000 OA
BRANCH  21  23
ATOM     23  O   UNL     1      18.079 -43.352   7.637  0.00  0.00    +0.000 OA
BRANCH  23  24
ATOM     24  C   UNL     1      16.908 -43.038   8.330  0.00  0.00    +0.000 C 
BRANCH  24  25
ATOM     25  C   UNL     1      16.154 -44.256   8.795  0.00  0.00    +0.000 C 
BRANCH  25  26
ATOM     26  C   UNL     1      14.757 -43.911   9.212  0.00  0.00    +0.000 C 
BRANCH  26  27
ATOM     27  C   UNL     1      14.457 -42.453   9.023  0.00  0.00    +0.000 C 
BRANCH  27  28
ATOM     28  C   UNL     1      13.030 -42.220   8.562  0.00  0.00    +0.000 C 
BRANCH  28  29
ATOM     29  C   UNL     1      12.270 -43.475   8.282  0.00  0.00    +0.000 C 
BRANCH  29  30
ATOM     30  C   UNL     1      10.832 -43.402   8.734  0.00  0.00    +0.000 C 
ATOM     31  C   UNL     1      10.730 -43.030  10.180  0.00  0.00    +0.000 C 
ENDBRANCH  29  30
ENDBRANCH  28  29
ENDBRANCH  27  28
ENDBRANCH  26  27
ENDBRANCH  25  26
ENDBRANCH  24  25
ENDBRANCH  23  24
ENDBRANCH  21  23
ENDBRANCH   3  21
BRANCH   1  32
ATOM     32  C   UNL     1      21.250 -39.807   9.383  0.00  0.00    +0.000 C 
BRANCH  32  35
ATOM     33  C   UNL     1      19.039 -38.815   8.967  0.00  0.00    +0.000 C 
ATOM     34  O   UNL     1      18.536 -39.654   9.853  0.00  0.00    +0.000 OA
ATOM     35  N   UNL     1      20.431 -38.814   8.776  0.00  0.00    +0.000 N 
ATOM     36  C   UNL     1      21.044 -37.823   7.933  0.00  0.00    +0.000 C 
BRANCH  33  37
ATOM     37  C   UNL     1      17.991 -38.013   8.326  0.00  0.00    +0.000 C 
BRANCH  37  38
ATOM     38  N   UNL     1      16.640 -38.219   8.851  0.00  0.00    +0.000 N 
ATOM     39  C   UNL     1      15.667 -38.960   8.281  0.00  0.00    +0.000 A 
ATOM     40  O   UNL     1      15.759 -39.641   7.233  0.00  0.00    +0.000 OA
ATOM     41  O   UNL     1      14.583 -38.863   8.995  0.00  0.00    +0.000 OA
ATOM     42  C   UNL     1      14.785 -38.083  10.029  0.00  0.00    +0.000 A 
ATOM     43  C   UNL     1      16.090 -37.665   9.949  0.00  0.00    +0.000 A 
ATOM     44  C   UNL     1      16.598 -36.807  10.919  0.00  0.00    +0.000 A 
ATOM     45  C   UNL     1      15.774 -36.401  11.940  0.00  0.00    +0.000 A 
ATOM     46  C   UNL     1      14.468 -36.816  12.032  0.00  0.00    +0.000 A 
ATOM     47  C   UNL     1      13.958 -37.661  11.077  0.00  0.00    +0.000 A 
BRANCH  46  48
ATOM     48  N   UNL     1      13.677 -36.368  13.112  0.00  0.00    +0.000 N 
ATOM     49  H   UNL     1      12.640 -36.432  13.083  0.00  0.00    +0.000 HD
ATOM     50  H   UNL     1      14.140 -35.971  13.949  0.00  0.00    +0.000 HD
ENDBRANCH  46  48
ENDBRANCH  37  38
ENDBRANCH  33  37
ENDBRANCH  32  35
ENDBRANCH   1  32
TORSDOF 18
ENDMDL
