MODEL 1
REMARK VINA RESULT:    -8.128      0.000      0.000
REMARK INTER + INTRA:         -13.073
REMARK INTER:                 -10.979
REMARK INTRA:                  -2.094
REMARK UNBOUND:                -2.094
REMARK  Name = 
REMARK  7 active torsions:
REMARK  status: ('A' for Active; 'I' for Inactive)
REMARK    1  A    between atoms: N_1  and  C_44
REMARK    2  A    between atoms: C_18  and  C_19
REMARK    3  A    between atoms: C_19  and  O_21
REMARK    4  A    between atoms: C_34  and  C_35
REMARK    5  A    between atoms: C_44  and  C_45
REMARK    6  A    between atoms: C_45  and  C_46
REMARK    7  A    between atoms: C_46  and  O_48
REMARK                            x       y       z     vdW  Elec       q    Type
REMARK                         _______ _______ _______ _____ _____    ______ ____
ROOT
ATOM      1  N   UNL     1      22.888 -45.116   7.617  0.00  0.00    +0.000 N 
ATOM      2  C   UNL     1      22.985 -46.449   7.206  0.00  0.00    +0.000 C 
ATOM      3  S   UNL     1      22.610 -47.090   5.802  0.00  0.00    +0.000 S 
ATOM      4  S   UNL     1      23.604 -48.039   8.219  0.00  0.00    +0.000 S 
ATOM      5  C   UNL     1      23.657 -46.988   9.864  0.00  0.00    +0.000 C 
ATOM      6  C   UNL     1      24.872 -46.440  10.015  0.00  0.00    +0.000 C 
ATOM      7  C   UNL     1      24.765 -45.340  11.191  0.00  0.00    +0.000 A 
ATOM      8  O   UNL     1      23.906 -44.640  10.366  0.00  0.00    +0.000 OA
ATOM      9  C   UNL     1      23.449 -43.706  10.536  0.00  0.00    +0.000 A 
ATOM     10  C   UNL     1      23.920 -43.423  11.788  0.00  0.00    +0.000 A 
ATOM     11  C   UNL     1      24.756 -44.504  12.217  0.00  0.00    +0.000 A 
ATOM     12  C   UNL     1      22.608 -43.252   9.319  0.00  0.00    +0.000 C 
ATOM     13  C   UNL     1      21.865 -42.938   8.255  0.00  0.00    +0.000 C 
ATOM     14  C   UNL     1      21.921 -44.335   8.543  0.00  0.00    +0.000 C 
ATOM     15  C   UNL     1      20.524 -44.655   8.197  0.00  0.00    +0.000 C 
ATOM     16  O   UNL     1      19.799 -43.488   8.698  0.00  0.00    +0.000 OA
ATOM     17  C   UNL     1      18.578 -43.498   7.988  0.00  0.00    +0.000 C 
ATOM     18  C   UNL     1      17.887 -42.230   8.284  0.00  0.00    +0.000 C 
ATOM     19  C   UNL     1      19.114 -43.628   6.606  0.00  0.00    +0.000 C 
ATOM     20  C   UNL     1      20.242 -44.356   6.718  0.00  0.00    +0.000 C 
ATOM     21  C   UNL     1      19.751 -45.736   8.694  0.00  0.00    +0.000 C 
ATOM     22  N   UNL     1      19.352 -46.791   7.894  0.00  0.00    +0.000 N 
ATOM     23  C   UNL     1      19.597 -47.995   7.263  0.00  0.00    +0.000 C 
ATOM     24  O   UNL     1      20.246 -48.742   6.543  0.00  0.00    +0.000 OA
ATOM     25  C   UNL     1      17.928 -47.003   7.407  0.00  0.00    +0.000 C 
ATOM     26  C   UNL     1      18.260 -48.383   7.958  0.00  0.00    +0.000 C 
ATOM     27  O   UNL     1      18.454 -48.230   9.359  0.00  0.00    +0.000 OA
ATOM     28  C   UNL     1      19.208 -49.237   9.906  0.00  0.00    +0.000 C 
ATOM     29  C   UNL     1      20.323 -48.717  10.761  0.00  0.00    +0.000 C 
ATOM     30  C   UNL     1      21.622 -48.612  10.080  0.00  0.00    +0.000 C 
ATOM     31  C   UNL     1      21.492 -41.697   7.462  0.00  0.00    +0.000 C 
ATOM     32  C   UNL     1      20.559 -40.817   7.964  0.00  0.00    +0.000 C 
ATOM     33  C   UNL     1      19.772 -40.889   9.173  0.00  0.00    +0.000 C 
ATOM     34  C   UNL     1      18.617 -41.502   9.387  0.00  0.00    +0.000 C 
ATOM     35  C   UNL     1      22.400 -47.376  10.285  0.00  0.00    +0.000 C 
ATOM     36  O   UNL     1      21.603 -46.576  11.050  0.00  0.00    +0.000 OA
ENDROOT
BRANCH  31  37
ATOM     37  C   UNL     1      22.015 -41.297   6.195  0.00  0.00    +0.000 C 
ATOM     38  F   UNL     1      21.266 -40.234   5.626  0.00  0.00    +0.000 F 
ATOM     39  F   UNL     1      23.310 -40.735   6.300  0.00  0.00    +0.000 F 
ATOM     40  F   UNL     1      21.900 -42.201   5.198  0.00  0.00    +0.000 F 
ENDBRANCH  31  37
BRANCH  18  41
ATOM     41  C   UNL     1      16.496 -42.225   8.617  0.00  0.00    +0.000 C 
ATOM     42  O   UNL     1      15.637 -42.378   9.356  0.00  0.00    +0.000 OA
BRANCH  41  43
ATOM     43  O   UNL     1      15.739 -41.771   7.241  0.00  0.00    +0.000 OA
ATOM     44  H   UNL     1      16.246 -42.161   6.492  0.00  0.00    +0.000 HD
ENDBRANCH  41  43
ENDBRANCH  18  41
BRANCH   1  45
ATOM     45  C   UNL     1      23.842 -44.106   7.037  0.00  0.00    +0.000 C 
BRANCH  45  46
ATOM     46  C   UNL     1      25.239 -44.294   6.985  0.00  0.00    +0.000 C 
BRANCH  46  47
ATOM     47  C   UNL     1      26.347 -43.936   7.878  0.00  0.00    +0.000 C 
ATOM     48  O   UNL     1      27.529 -44.238   7.159  0.00  0.00    +0.000 OA
BRANCH  47  49
ATOM     49  O   UNL     1      26.596 -43.463   9.057  0.00  0.00    +0.000 OA
ATOM     50  H   UNL     1      25.939 -42.710   9.408  0.00  0.00    +0.000 HD
ENDBRANCH  47  49
ENDBRANCH  46  47
ENDBRANCH  45  46
ENDBRANCH   1  45
TORSDOF 7
ENDMDL
