MODEL 1
REMARK VINA RESULT:   -10.125      0.000      0.000
REMARK INTER + INTRA:         -17.033
REMARK INTER:                 -15.748
REMARK INTRA:                  -1.285
REMARK UNBOUND:                -1.285
REMARK  Name = 
REMARK  13 active torsions:
REMARK  status: ('A' for Active; 'I' for Inactive)
REMARK    1  A    between atoms: N_1  and  C_19
REMARK    2  A    between atoms: C_10  and  N_11
REMARK    3  A    between atoms: N_11  and  C_12
REMARK    4  A    between atoms: C_19  and  C_20
REMARK    5  A    between atoms: C_22  and  O_23
REMARK    6  A    between atoms: O_23  and  C_24
REMARK    7  A    between atoms: C_24  and  C_25
REMARK    8  A    between atoms: C_24  and  C_26
REMARK    9  A    between atoms: C_29  and  C_30
REMARK   10  A    between atoms: C_30  and  C_31
REMARK   11  A    between atoms: C_31  and  O_33
REMARK   12  A    between atoms: N_35  and  C_39
REMARK   13  A    between atoms: C_39  and  C_40
REMARK                            x       y       z     vdW  Elec       q    Type
REMARK                         _______ _______ _______ _____ _____    ______ ____
ROOT
ATOM      1  C   UNL     1      16.826 -38.661  10.052  0.00  0.00    +0.000 A 
ATOM      2  C   UNL     1      16.242 -37.583  10.703  0.00  0.00    +0.000 A 
ATOM      3  C   UNL     1      16.914 -36.380  10.957  0.00  0.00    +0.000 A 
ATOM      4  C   UNL     1      18.214 -36.316  10.519  0.00  0.00    +0.000 A 
ATOM      5  C   UNL     1      18.798 -37.390   9.871  0.00  0.00    +0.000 A 
ATOM      6  C   UNL     1      18.123 -38.591   9.618  0.00  0.00    +0.000 A 
ENDROOT
BRANCH   6   7
ATOM      7  C   UNL     1      18.869 -39.635   8.966  0.00  0.00    +0.000 C 
ATOM      8  C   UNL     1      18.468 -41.039   9.454  0.00  0.00    +0.000 C 
ATOM      9  N   UNL     1      19.675 -41.805   9.091  0.00  0.00    +0.000 N 
ATOM     10  C   UNL     1      20.756 -41.020   9.575  0.00  0.00    +0.000 C 
ATOM     11  O   UNL     1      21.857 -41.360  10.052  0.00  0.00    +0.000 OA
ATOM     12  C   UNL     1      20.320 -39.604   9.403  0.00  0.00    +0.000 C 
BRANCH   7  13
ATOM     13  C   UNL     1      18.819 -39.695   7.512  0.00  0.00    +0.000 C 
ATOM     14  O   UNL     1      19.767 -39.297   6.802  0.00  0.00    +0.000 OA
BRANCH  13  15
ATOM     15  O   UNL     1      17.721 -40.196   6.842  0.00  0.00    +0.000 OA
ATOM     16  H   UNL     1      17.839 -40.628   5.928  0.00  0.00    +0.000 HD
ENDBRANCH  13  15
ENDBRANCH   7  13
BRANCH   9  17
ATOM     17  C   UNL     1      19.789 -43.067   8.409  0.00  0.00    +0.000 C 
BRANCH  17  18
ATOM     18  C   UNL     1      18.519 -43.493   7.755  0.00  0.00    +0.000 C 
ATOM     19  C   UNL     1      18.034 -44.693   8.024  0.00  0.00    +0.000 C 
ENDBRANCH  17  18
ENDBRANCH   9  17
ENDBRANCH   6   7
BRANCH   1  20
ATOM     20  C   UNL     1      16.085 -39.908   9.820  0.00  0.00    +0.000 C 
BRANCH  20  21
ATOM     21  N   UNL     1      14.696 -39.882  10.314  0.00  0.00    +0.000 NA
ATOM     22  C   UNL     1      13.750 -40.156   9.283  0.00  0.00    +0.000 C 
ATOM     23  C   UNL     1      13.116 -41.492   9.333  0.00  0.00    +0.000 A 
ATOM     24  C   UNL     1      12.499 -42.103  10.388  0.00  0.00    +0.000 A 
ATOM     25  O   UNL     1      12.364 -41.556  11.675  0.00  0.00    +0.000 OA
ATOM     26  C   UNL     1      13.275 -40.576  12.219  0.00  0.00    +0.000 C 
ATOM     27  C   UNL     1      14.590 -40.617  11.524  0.00  0.00    +0.000 C 
ATOM     28  C   UNL     1      13.470 -41.033  13.672  0.00  0.00    +0.000 C 
ATOM     29  C   UNL     1      12.134 -40.796  14.355  0.00  0.00    +0.000 C 
ATOM     30  C   UNL     1      12.091 -39.329  14.725  0.00  0.00    +0.000 C 
ATOM     31  C   UNL     1      12.799 -38.572  13.638  0.00  0.00    +0.000 C 
ATOM     32  C   UNL     1      12.627 -39.232  12.271  0.00  0.00    +0.000 C 
ATOM     33  C   UNL     1      11.928 -43.380  10.277  0.00  0.00    +0.000 A 
ATOM     34  C   UNL     1      11.993 -44.034   9.060  0.00  0.00    +0.000 A 
ATOM     35  C   UNL     1      12.613 -43.418   7.994  0.00  0.00    +0.000 A 
ATOM     36  C   UNL     1      13.178 -42.142   8.129  0.00  0.00    +0.000 A 
BRANCH  30  37
ATOM     37  N   UNL     1      12.871 -39.179  15.954  0.00  0.00    +0.000 NA
ATOM     38  C   UNL     1      12.372 -39.980  17.030  0.00  0.00    +0.000 C 
ATOM     39  H   UNL     1      13.877 -39.352  15.790  0.00  0.00    +0.000 HD
ENDBRANCH  30  37
ENDBRANCH  20  21
ENDBRANCH   1  20
BRANCH   3  40
ATOM     40  O   UNL     1      16.244 -35.357  11.615  0.00  0.00    +0.000 OA
BRANCH  40  41
ATOM     41  C   UNL     1      15.117 -34.669  11.213  0.00  0.00    +0.000 C 
ATOM     42  C   UNL     1      15.284 -33.162  11.277  0.00  0.00    +0.000 C 
ATOM     43  C   UNL     1      13.869 -35.057  11.986  0.00  0.00    +0.000 C 
ENDBRANCH  40  41
ENDBRANCH   3  40
TORSDOF 10
ENDMDL
