MODEL 1
REMARK VINA RESULT:    -9.809      0.000      0.000
REMARK INTER + INTRA:         -15.961
REMARK INTER:                 -14.396
REMARK INTRA:                  -1.565
REMARK UNBOUND:                -1.565
REMARK  Name = 
REMARK  10 active torsions:
REMARK  status: ('A' for Active; 'I' for Inactive)
REMARK    1  A    between atoms: C_1  and  C_17
REMARK    2  A    between atoms: C_5  and  N_6
REMARK    3  A    between atoms: C_9  and  C_11
REMARK    4  A    between atoms: N_19  and  C_20
REMARK    5  A    between atoms: C_20  and  C_21
REMARK    6  A    between atoms: C_21  and  C_22
REMARK    7  A    between atoms: C_21  and  C_30
REMARK    8  A    between atoms: C_21  and  N_36
REMARK    9  A    between atoms: C_25  and  O_28
REMARK   10  A    between atoms: O_28  and  C_29
REMARK                            x       y       z     vdW  Elec       q    Type
REMARK                         _______ _______ _______ _____ _____    ______ ____
ROOT
ATOM      1  C   UNL     1      17.388 -42.787   8.559  0.00  0.00    +0.000 C 
ATOM      2  O   UNL     1      16.157 -42.799   8.755  0.00  0.00    +0.000 OA
ATOM      3  N   UNL     1      18.153 -41.665   8.899  0.00  0.00    +0.000 N 
ATOM      4  H   UNL     1      19.205 -41.772   8.692  0.00  0.00    +0.000 HD
ENDROOT
BRANCH   1   5
ATOM      5  C   UNL     1      17.968 -43.978   7.972  0.00  0.00    +0.000 A 
ATOM      6  S   UNL     1      19.356 -44.007   6.919  0.00  0.00    +0.000 S 
ATOM      7  C   UNL     1      19.407 -45.821   6.651  0.00  0.00    +0.000 A 
ATOM      8  C   UNL     1      18.350 -46.204   7.400  0.00  0.00    +0.000 A 
ATOM      9  C   UNL     1      17.612 -45.312   8.071  0.00  0.00    +0.000 A 
ATOM     10  C   UNL     1      18.143 -47.615   7.377  0.00  0.00    +0.000 A 
ATOM     11  C   UNL     1      18.996 -48.397   6.634  0.00  0.00    +0.000 A 
ATOM     12  C   UNL     1      20.056 -47.935   5.892  0.00  0.00    +0.000 A 
ATOM     13  N   UNL     1      20.232 -46.578   5.931  0.00  0.00    +0.000 NA
BRANCH  12  14
ATOM     14  C   UNL     1      20.971 -48.772   5.092  0.00  0.00    +0.000 C 
ATOM     15  N   UNL     1      21.070 -50.056   5.747  0.00  0.00    +0.000 NA
ATOM     16  C   UNL     1      22.363 -50.657   5.667  0.00  0.00    +0.000 C 
ATOM     17  C   UNL     1      23.062 -50.383   4.366  0.00  0.00    +0.000 C 
ATOM     18  C   UNL     1      23.342 -48.909   4.288  0.00  0.00    +0.000 C 
ATOM     19  C   UNL     1      22.295 -48.077   4.967  0.00  0.00    +0.000 C 
ATOM     20  H   UNL     1      20.780 -50.010   6.747  0.00  0.00    +0.000 HD
ENDBRANCH  12  14
BRANCH   9  21
ATOM     21  N   UNL     1      16.452 -45.623   8.908  0.00  0.00    +0.000 N 
ATOM     22  H   UNL     1      16.476 -46.353   9.611  0.00  0.00    +0.000 HD
ATOM     23  H   UNL     1      15.612 -45.053   8.732  0.00  0.00    +0.000 HD
ENDBRANCH   9  21
ENDBRANCH   1   5
BRANCH   3  24
ATOM     24  C   UNL     1      17.675 -40.458   9.467  0.00  0.00    +0.000 C 
BRANCH  24  25
ATOM     25  C   UNL     1      17.872 -39.203   8.693  0.00  0.00    +0.000 C 
BRANCH  25  26
ATOM     26  C   UNL     1      17.386 -38.000   9.447  0.00  0.00    +0.000 A 
ATOM     27  C   UNL     1      17.678 -36.734   8.987  0.00  0.00    +0.000 A 
ATOM     28  C   UNL     1      17.238 -35.601   9.667  0.00  0.00    +0.000 A 
ATOM     29  C   UNL     1      16.497 -35.737  10.816  0.00  0.00    +0.000 A 
ATOM     30  C   UNL     1      16.207 -37.012  11.269  0.00  0.00    +0.000 A 
ATOM     31  C   UNL     1      16.652 -38.138  10.583  0.00  0.00    +0.000 A 
BRANCH  29  32
ATOM     32  O   UNL     1      16.022 -34.630  11.546  0.00  0.00    +0.000 OA
ATOM     33  C   UNL     1      15.656 -33.493  10.790  0.00  0.00    +0.000 C 
ENDBRANCH  29  32
ENDBRANCH  25  26
BRANCH  25  34
ATOM     34  C   UNL     1      19.289 -38.933   8.379  0.00  0.00    +0.000 A 
ATOM     35  C   UNL     1      19.693 -38.750   7.088  0.00  0.00    +0.000 A 
ATOM     36  C   UNL     1      20.998 -38.497   6.768  0.00  0.00    +0.000 A 
ATOM     37  C   UNL     1      21.947 -38.420   7.749  0.00  0.00    +0.000 A 
ATOM     38  C   UNL     1      21.572 -38.600   9.059  0.00  0.00    +0.000 A 
ATOM     39  C   UNL     1      20.230 -38.858   9.373  0.00  0.00    +0.000 A 
ENDBRANCH  25  34
BRANCH  25  40
ATOM     40  N   UNL     1      17.058 -39.203   7.472  0.00  0.00    +0.000 NA
ATOM     41  H   UNL     1      16.093 -39.528   7.662  0.00  0.00    +0.000 HD
ATOM     42  H   UNL     1      17.487 -39.977   6.878  0.00  0.00    +0.000 HD
ENDBRANCH  25  40
ENDBRANCH  24  25
ENDBRANCH   3  24
TORSDOF 9
ENDMDL
