MODEL 1
REMARK VINA RESULT:    -9.354      0.000      0.000
REMARK INTER + INTRA:         -15.162
REMARK INTER:                 -14.549
REMARK INTRA:                  -0.614
REMARK UNBOUND:                -0.614
REMARK  Name = 
REMARK  15 active torsions:
REMARK  status: ('A' for Active; 'I' for Inactive)
REMARK    1  A    between atoms: N_1  and  C_14
REMARK    2  A    between atoms: C_2  and  C_11
REMARK    3  A    between atoms: C_7  and  C_10
REMARK    4  A    between atoms: C_11  and  O_13
REMARK    5  A    between atoms: C_14  and  C_15
REMARK    6  A    between atoms: C_15  and  C_16
REMARK    7  A    between atoms: C_21  and  C_22
REMARK    8  A    between atoms: C_22  and  C_23
REMARK    9  A    between atoms: N_25  and  C_26
REMARK   10  A    between atoms: N_25  and  C_27
REMARK   11  A    between atoms: C_30  and  C_32
REMARK   12  A    between atoms: N_35  and  N_36
REMARK   13  A    between atoms: C_37  and  C_51
REMARK   14  A    between atoms: C_41  and  C_42
REMARK   15  A    between atoms: C_44  and  C_47
REMARK                            x       y       z     vdW  Elec       q    Type
REMARK                         _______ _______ _______ _____ _____    ______ ____
ROOT
ATOM      1  C   UNL     1      22.608 -44.934   8.044  0.00  0.00    +0.000 C 
ATOM      2  C   UNL     1      21.651 -44.798   6.823  0.00  0.00    +0.000 C 
ATOM      3  N   UNL     1      21.381 -46.075   6.209  0.00  0.00    +0.000 N 
ATOM      4  C   UNL     1      20.110 -46.594   5.891  0.00  0.00    +0.000 C 
ATOM      5  O   UNL     1      19.088 -45.907   6.123  0.00  0.00    +0.000 OA
ATOM      6  C   UNL     1      19.978 -47.945   5.285  0.00  0.00    +0.000 C 
ATOM      7  C   UNL     1      22.611 -46.824   5.881  0.00  0.00    +0.000 C 
ATOM      8  C   UNL     1      23.731 -45.909   6.170  0.00  0.00    +0.000 C 
ATOM      9  N   UNL     1      23.826 -45.415   7.532  0.00  0.00    +0.000 NA
ENDROOT
BRANCH   9  10
ATOM     10  N   UNL     1      24.792 -46.012   8.262  0.00  0.00    +0.000 NA
ATOM     11  C   UNL     1      26.029 -45.415   8.492  0.00  0.00    +0.000 C 
ATOM     12  C   UNL     1      26.569 -45.915   9.784  0.00  0.00    +0.000 A 
ATOM     13  C   UNL     1      26.233 -46.966  10.482  0.00  0.00    +0.000 A 
ATOM     14  C   UNL     1      25.118 -47.848   9.933  0.00  0.00    +0.000 C 
ATOM     15  C   UNL     1      24.644 -47.369   8.638  0.00  0.00    +0.000 C 
ATOM     16  C   UNL     1      26.860 -47.230  11.670  0.00  0.00    +0.000 A 
ATOM     17  C   UNL     1      27.809 -46.393  12.088  0.00  0.00    +0.000 A 
ATOM     18  S   UNL     1      27.891 -45.122  10.784  0.00  0.00    +0.000 S 
BRANCH  11  19
ATOM     19  C   UNL     1      27.069 -45.419   7.453  0.00  0.00    +0.000 A 
ATOM     20  C   UNL     1      28.181 -46.215   7.525  0.00  0.00    +0.000 A 
ATOM     21  C   UNL     1      29.110 -46.167   6.505  0.00  0.00    +0.000 A 
ATOM     22  C   UNL     1      28.951 -45.338   5.413  0.00  0.00    +0.000 A 
ATOM     23  C   UNL     1      27.844 -44.526   5.313  0.00  0.00    +0.000 A 
ATOM     24  C   UNL     1      26.915 -44.593   6.360  0.00  0.00    +0.000 A 
ATOM     25 CL   UNL     1      30.211 -45.373   4.181  0.00  0.00    +0.000 Cl
ATOM     26 CL   UNL     1      30.538 -47.212   6.632  0.00  0.00    +0.000 Cl
ENDBRANCH  11  19
BRANCH  15  27
ATOM     27  C   UNL     1      25.072 -48.379   7.612  0.00  0.00    +0.000 A 
ATOM     28  N   UNL     1      26.029 -48.274   6.708  0.00  0.00    +0.000 NA
ATOM     29  C   UNL     1      26.313 -49.154   5.860  0.00  0.00    +0.000 A 
ATOM     30  C   UNL     1      25.521 -50.369   5.891  0.00  0.00    +0.000 A 
ATOM     31  S   UNL     1      24.445 -49.948   7.249  0.00  0.00    +0.000 S 
ATOM     32  C   UNL     1      27.427 -49.048   4.802  0.00  0.00    +0.000 C 
ENDBRANCH  15  27
ENDBRANCH   9  10
BRANCH   1  38
ATOM     33  C   UNL     1      21.905 -42.504   7.807  0.00  0.00    +0.000 C 
ATOM     34  C   UNL     1      22.752 -41.580   6.986  0.00  0.00    +0.000 C 
ATOM     35  C   UNL     1      23.621 -40.706   7.895  0.00  0.00    +0.000 C 
ATOM     36  C   UNL     1      24.274 -41.571   8.920  0.00  0.00    +0.000 C 
ATOM     37  C   UNL     1      24.214 -43.034   8.487  0.00  0.00    +0.000 C 
ATOM     38  C   UNL     1      22.776 -43.505   8.559  0.00  0.00    +0.000 C 
BRANCH  33  39
ATOM     39  C   UNL     1      21.020 -41.744   8.730  0.00  0.00    +0.000 C 
BRANCH  39  40
ATOM     40  C   UNL     1      19.954 -40.867   8.270  0.00  0.00    +0.000 C 
BRANCH  40  41
ATOM     41  N   UNL     1      18.655 -40.843   8.801  0.00  0.00    +0.000 N 
ATOM     42  C   UNL     1      17.733 -41.834   8.694  0.00  0.00    +0.000 A 
ATOM     43  C   UNL     1      16.586 -41.350   9.281  0.00  0.00    +0.000 A 
ATOM     44  C   UNL     1      16.821 -40.083   9.733  0.00  0.00    +0.000 A 
ATOM     45  C   UNL     1      18.107 -39.779   9.431  0.00  0.00    +0.000 A 
ATOM     46  C   UNL     1      18.655 -38.540   9.767  0.00  0.00    +0.000 A 
ATOM     47  C   UNL     1      17.841 -37.638  10.417  0.00  0.00    +0.000 A 
ATOM     48  C   UNL     1      16.528 -37.924  10.737  0.00  0.00    +0.000 A 
ATOM     49  C   UNL     1      16.018 -39.157  10.390  0.00  0.00    +0.000 A 
ATOM     50  C   UNL     1      18.426 -36.301  10.781  0.00  0.00    +0.000 C 
BRANCH  42  51
ATOM     51  C   UNL     1      17.886 -43.152   8.068  0.00  0.00    +0.000 C 
ATOM     52  O   UNL     1      17.671 -44.226   8.642  0.00  0.00    +0.000 OA
BRANCH  51  53
ATOM     53  O   UNL     1      18.306 -43.174   6.732  0.00  0.00    +0.000 OA
ATOM     54  H   UNL     1      19.150 -43.639   6.452  0.00  0.00    +0.000 HD
ENDBRANCH  51  53
ENDBRANCH  42  51
ENDBRANCH  40  41
ENDBRANCH  39  40
ENDBRANCH  33  39
ENDBRANCH   1  38
BRANCH   1  55
ATOM     55  C   UNL     1      21.898 -45.719   9.042  0.00  0.00    +0.000 C 
ATOM     56  O   UNL     1      20.849 -46.374   8.557  0.00  0.00    +0.000 OA
ATOM     57  N   UNL     1      22.046 -45.954  10.395  0.00  0.00    +0.000 N 
ATOM     58  C   UNL     1      23.007 -45.422  11.297  0.00  0.00    +0.000 C 
ATOM     59  C   UNL     1      21.078 -46.896  11.030  0.00  0.00    +0.000 C 
ENDBRANCH   1  55
TORSDOF 10
ENDMDL
