MODEL 1
REMARK VINA RESULT:   -10.320      0.000      0.000
REMARK INTER + INTRA:         -15.582
REMARK INTER:                 -14.845
REMARK INTRA:                  -0.736
REMARK UNBOUND:                -0.736
REMARK  Name = 
REMARK  11 active torsions:
REMARK  status: ('A' for Active; 'I' for Inactive)
REMARK    1  A    between atoms: C_7  and  C_14
REMARK    2  A    between atoms: C_8  and  C_12
REMARK    3  A    between atoms: C_9  and  N_11
REMARK    4  A    between atoms: C_16  and  O_22
REMARK    5  A    between atoms: C_17  and  O_20
REMARK    6  A    between atoms: O_20  and  C_21
REMARK    7  A    between atoms: O_22  and  C_23
REMARK    8  A    between atoms: C_27  and  N_28
REMARK    9  A    between atoms: C_34  and  C_35
REMARK   10  A    between atoms: C_38  and  C_39
REMARK   11  A    between atoms: C_39  and  C_40
REMARK                            x       y       z     vdW  Elec       q    Type
REMARK                         _______ _______ _______ _____ _____    ______ ____
ROOT
ATOM      1  C   UNL     1      19.142 -41.674   8.643  0.00  0.00    +0.000 A 
ATOM      2  C   UNL     1      20.023 -40.455   8.745  0.00  0.00    +0.000 A 
ATOM      3  C   UNL     1      19.414 -39.407   9.240  0.00  0.00    +0.000 A 
ATOM      4  C   UNL     1      17.953 -39.297   9.470  0.00  0.00    +0.000 C 
ATOM      5  C   UNL     1      17.271 -40.572   9.770  0.00  0.00    +0.000 C 
ATOM      6  C   UNL     1      17.845 -41.718   9.013  0.00  0.00    +0.000 A 
ATOM      7  C   UNL     1      17.037 -42.796   8.829  0.00  0.00    +0.000 A 
ATOM      8  C   UNL     1      17.637 -43.883   8.233  0.00  0.00    +0.000 A 
ATOM      9  C   UNL     1      18.931 -43.891   7.852  0.00  0.00    +0.000 A 
ATOM     10  N   UNL     1      19.700 -42.773   8.055  0.00  0.00    +0.000 NA
ATOM     11  C   UNL     1      20.174 -38.187   9.478  0.00  0.00    +0.000 A 
ATOM     12  C   UNL     1      21.486 -38.361   9.103  0.00  0.00    +0.000 A 
ATOM     13  C   UNL     1      22.061 -39.377   8.623  0.00  0.00    +0.000 A 
ATOM     14  C   UNL     1      21.329 -40.632   8.369  0.00  0.00    +0.000 A 
ENDROOT
BRANCH  14  15
ATOM     15  N   UNL     1      21.985 -41.673   7.850  0.00  0.00    +0.000 N 
ATOM     16  C   UNL     1      22.130 -42.165   6.518  0.00  0.00    +0.000 A 
ATOM     17  N   UNL     1      22.460 -43.489   6.347  0.00  0.00    +0.000 NA
ATOM     18  C   UNL     1      22.630 -44.043   5.095  0.00  0.00    +0.000 A 
ATOM     19  C   UNL     1      22.459 -43.254   4.020  0.00  0.00    +0.000 A 
ATOM     20  C   UNL     1      22.131 -41.938   4.153  0.00  0.00    +0.000 A 
ATOM     21  C   UNL     1      21.961 -41.372   5.430  0.00  0.00    +0.000 A 
ATOM     22  C   UNL     1      21.636 -39.938   5.563  0.00  0.00    +0.000 C 
ATOM     23  C   UNL     1      22.779 -42.453   8.811  0.00  0.00    +0.000 A 
ATOM     24  N   UNL     1      24.054 -42.132   9.001  0.00  0.00    +0.000 NA
ATOM     25  C   UNL     1      24.905 -42.767   9.858  0.00  0.00    +0.000 A 
ATOM     26  C   UNL     1      24.361 -43.795  10.540  0.00  0.00    +0.000 A 
ATOM     27  N   UNL     1      23.087 -44.206  10.428  0.00  0.00    +0.000 NA
ATOM     28  C   UNL     1      22.274 -43.500   9.525  0.00  0.00    +0.000 A 
BRANCH  25  29
ATOM     29  C   UNL     1      26.251 -42.219   9.875  0.00  0.00    +0.000 C 
BRANCH  29  30
ATOM     30  C   UNL     1      27.393 -42.972  10.430  0.00  0.00    +0.000 C 
ATOM     31  C   UNL     1      27.781 -42.231  11.706  0.00  0.00    +0.000 C 
ATOM     32  C   UNL     1      29.243 -42.137  11.968  0.00  0.00    +0.000 C 
ATOM     33  N   UNL     1      29.841 -41.562  10.752  0.00  0.00    +0.000 NA
ATOM     34  C   UNL     1      29.844 -42.655   9.805  0.00  0.00    +0.000 C 
ATOM     35  C   UNL     1      28.508 -43.225   9.489  0.00  0.00    +0.000 C 
ATOM     36  H   UNL     1      30.867 -41.409  11.008  0.00  0.00    +0.000 HD
ENDBRANCH  29  30
ENDBRANCH  25  29
ENDBRANCH  14  15
BRANCH   7  37
ATOM     37  C   UNL     1      15.613 -42.889   9.086  0.00  0.00    +0.000 A 
ATOM     38  C   UNL     1      15.188 -43.596  10.241  0.00  0.00    +0.000 A 
ATOM     39  C   UNL     1      13.820 -43.723  10.347  0.00  0.00    +0.000 A 
ATOM     40  C   UNL     1      12.885 -43.287   9.551  0.00  0.00    +0.000 A 
ATOM     41  C   UNL     1      13.325 -42.541   8.350  0.00  0.00    +0.000 A 
ATOM     42  C   UNL     1      14.680 -42.423   8.251  0.00  0.00    +0.000 A 
BRANCH  40  43
ATOM     43  O   UNL     1      11.541 -43.426   9.660  0.00  0.00    +0.000 OA
ATOM     44  C   UNL     1      10.578 -42.727  10.350  0.00  0.00    +0.000 C 
ENDBRANCH  40  43
BRANCH  39  45
ATOM     45  O   UNL     1      13.409 -44.460  11.523  0.00  0.00    +0.000 OA
ATOM     46  C   UNL     1      14.230 -45.446  12.087  0.00  0.00    +0.000 C 
ENDBRANCH  39  45
ENDBRANCH   7  37
BRANCH   9  47
ATOM     47  N   UNL     1      19.543 -45.037   7.278  0.00  0.00    +0.000 N 
ATOM     48  H   UNL     1      20.557 -45.127   7.139  0.00  0.00    +0.000 HD
ATOM     49  H   UNL     1      18.960 -45.851   6.978  0.00  0.00    +0.000 HD
ENDBRANCH   9  47
BRANCH   8  50
ATOM     50  C   UNL     1      16.771 -45.070   8.054  0.00  0.00    +0.000 C 
ATOM     51  N   UNL     1      16.102 -46.021   7.908  0.00  0.00    +0.000 NA
ENDBRANCH   8  50
TORSDOF 8
ENDMDL
