MODEL 1
REMARK VINA RESULT:    -9.113      0.000      0.000
REMARK INTER + INTRA:         -16.893
REMARK INTER:                 -14.440
REMARK INTRA:                  -2.453
REMARK UNBOUND:                -2.453
REMARK  Name = 
REMARK  10 active torsions:
REMARK  status: ('A' for Active; 'I' for Inactive)
REMARK    1  A    between atoms: C_2  and  N_3
REMARK    2  A    between atoms: N_3  and  C_4
REMARK    3  A    between atoms: C_4  and  C_5
REMARK    4  A    between atoms: C_13  and  C_17
REMARK    5  A    between atoms: C_22  and  N_23
REMARK    6  A    between atoms: N_23  and  C_24
REMARK    7  A    between atoms: N_23  and  C_37
REMARK    8  A    between atoms: C_24  and  C_25
REMARK    9  A    between atoms: C_24  and  C_31
REMARK   10  A    between atoms: C_37  and  C_38
REMARK                            x       y       z     vdW  Elec       q    Type
REMARK                         _______ _______ _______ _____ _____    ______ ____
ROOT
ATOM      1  C   UNL     1      17.723 -42.703   8.340  0.00  0.00    +0.000 A 
ATOM      2  C   UNL     1      16.469 -43.246   8.578  0.00  0.00    +0.000 A 
ATOM      3  C   UNL     1      16.268 -44.596   8.594  0.00  0.00    +0.000 A 
ATOM      4  C   UNL     1      17.307 -45.463   8.371  0.00  0.00    +0.000 A 
ATOM      5  C   UNL     1      18.579 -44.912   8.125  0.00  0.00    +0.000 A 
ATOM      6  C   UNL     1      18.814 -43.561   8.101  0.00  0.00    +0.000 A 
ENDROOT
BRANCH   1  12
ATOM      7  C   UNL     1      17.615 -38.462   8.852  0.00  0.00    +0.000 C 
ATOM      8  C   UNL     1      17.937 -37.234   9.029  0.00  0.00    +0.000 C 
ATOM      9  C   UNL     1      17.949 -39.141   7.536  0.00  0.00    +0.000 C 
ATOM     10  O   UNL     1      18.688 -38.696   6.712  0.00  0.00    +0.000 OA
ATOM     11  C   UNL     1      17.193 -40.457   7.471  0.00  0.00    +0.000 C 
ATOM     12  C   UNL     1      17.981 -41.286   8.517  0.00  0.00    +0.000 C 
ATOM     13  C   UNL     1      17.165 -40.843   9.816  0.00  0.00    +0.000 C 
ATOM     14  C   UNL     1      16.931 -39.356   9.761  0.00  0.00    +0.000 C 
ATOM     15  O   UNL     1      16.080 -38.918  10.553  0.00  0.00    +0.000 OA
BRANCH   8  16
ATOM     16  N   UNL     1      17.871 -36.227   9.976  0.00  0.00    +0.000 N 
ATOM     17  H   UNL     1      18.320 -36.398  10.932  0.00  0.00    +0.000 HD
BRANCH  16  18
ATOM     18  C   UNL     1      17.229 -34.941   9.790  0.00  0.00    +0.000 C 
BRANCH  18  19
ATOM     19  C   UNL     1      16.353 -34.572  10.963  0.00  0.00    +0.000 C 
ATOM     20  O   UNL     1      15.569 -35.606  11.424  0.00  0.00    +0.000 OA
ATOM     21  C   UNL     1      14.248 -35.177  11.359  0.00  0.00    +0.000 C 
ATOM     22  C   UNL     1      14.281 -33.670  11.482  0.00  0.00    +0.000 C 
ATOM     23  C   UNL     1      15.548 -33.366  10.696  0.00  0.00    +0.000 C 
ENDBRANCH  18  19
ENDBRANCH  16  18
ENDBRANCH   8  16
ENDBRANCH   1  12
BRANCH   6  24
ATOM     24  N   UNL     1      20.095 -43.021   7.710  0.00  0.00    +0.000 N 
BRANCH  24  25
ATOM     25  C   UNL     1      20.937 -42.200   8.509  0.00  0.00    +0.000 C 
BRANCH  25  26
ATOM     26  C   UNL     1      22.226 -42.988   8.757  0.00  0.00    +0.000 A 
ATOM     27  C   UNL     1      22.125 -44.161   9.462  0.00  0.00    +0.000 A 
ATOM     28  C   UNL     1      23.185 -44.964   9.772  0.00  0.00    +0.000 A 
ATOM     29  C   UNL     1      24.428 -44.537   9.329  0.00  0.00    +0.000 A 
ATOM     30  C   UNL     1      24.576 -43.344   8.604  0.00  0.00    +0.000 A 
ATOM     31  C   UNL     1      23.446 -42.586   8.331  0.00  0.00    +0.000 A 
ENDBRANCH  25  26
BRANCH  25  32
ATOM     32  C   UNL     1      21.387 -40.887   8.072  0.00  0.00    +0.000 A 
ATOM     33  C   UNL     1      21.755 -40.563   6.802  0.00  0.00    +0.000 A 
ATOM     34  C   UNL     1      22.110 -39.266   6.479  0.00  0.00    +0.000 A 
ATOM     35  C   UNL     1      22.106 -38.244   7.438  0.00  0.00    +0.000 A 
ATOM     36  C   UNL     1      21.734 -38.597   8.717  0.00  0.00    +0.000 A 
ATOM     37  C   UNL     1      21.377 -39.870   9.051  0.00  0.00    +0.000 A 
ENDBRANCH  25  32
ENDBRANCH  24  25
BRANCH  24  38
ATOM     38  C   UNL     1      20.515 -43.398   6.385  0.00  0.00    +0.000 C 
BRANCH  38  39
ATOM     39  C   UNL     1      21.240 -44.603   6.169  0.00  0.00    +0.000 A 
ATOM     40  S   UNL     1      22.771 -44.458   5.279  0.00  0.00    +0.000 S 
ATOM     41  C   UNL     1      23.222 -46.230   5.261  0.00  0.00    +0.000 A 
ATOM     42  C   UNL     1      22.142 -46.759   5.941  0.00  0.00    +0.000 A 
ATOM     43  C   UNL     1      21.191 -45.932   6.371  0.00  0.00    +0.000 A 
ENDBRANCH  38  39
ENDBRANCH  24  38
ENDBRANCH   6  24
TORSDOF 10
ENDMDL
