MODEL 1
REMARK VINA RESULT:    -9.396      0.000      0.000
REMARK INTER + INTRA:         -15.904
REMARK INTER:                 -14.339
REMARK INTRA:                  -1.565
REMARK UNBOUND:                -1.565
REMARK  Name = 
REMARK  10 active torsions:
REMARK  status: ('A' for Active; 'I' for Inactive)
REMARK    1  A    between atoms: C_1  and  C_16
REMARK    2  A    between atoms: CA_2  and  C_13
REMARK    3  A    between atoms: C_7  and  C_8
REMARK    4  A    between atoms: C_8  and  O_10
REMARK    5  A    between atoms: C_13  and  OXT_15
REMARK    6  A    between atoms: C_16  and  C_17
REMARK    7  A    between atoms: C_17  and  O_19
REMARK    8  A    between atoms: O_19  and  N_20
REMARK    9  A    between atoms: C_26  and  C_28
REMARK   10  A    between atoms: C_31  and  C_34
REMARK                            x       y       z     vdW  Elec       q    Type
REMARK                         _______ _______ _______ _____ _____    ______ ____
ROOT
ATOM      1  O   UNL     1      12.776 -39.051  11.660  0.00  0.00    +0.000 OA
ENDROOT
BRANCH   1   2
ATOM      2  N   UNL     1      13.890 -38.389  11.069  0.00  0.00    +0.000 N 
ATOM      3  C   UNL     1      13.829 -37.001  11.329  0.00  0.00    +0.000 A 
ATOM      4  N   UNL     1      14.327 -36.064  11.910  0.00  0.00    +0.000 NA
ATOM      5  C   UNL     1      14.020 -34.822  11.988  0.00  0.00    +0.000 A 
ATOM      6  C   UNL     1      12.877 -34.486  11.245  0.00  0.00    +0.000 A 
ATOM      7  S   UNL     1      12.403 -36.057  10.526  0.00  0.00    +0.000 S 
ATOM      8  C   UNL     1      14.834 -39.110  10.399  0.00  0.00    +0.000 C 
ATOM      9  O   UNL     1      14.520 -40.371  10.115  0.00  0.00    +0.000 OA
BRANCH   8  10
ATOM     10  C   UNL     1      16.153 -38.785   9.916  0.00  0.00    +0.000 A 
ATOM     11  C   UNL     1      16.663 -39.387   8.761  0.00  0.00    +0.000 A 
ATOM     12  N   UNL     1      17.905 -39.189   8.308  0.00  0.00    +0.000 NA
ATOM     13  C   UNL     1      18.780 -38.384   8.935  0.00  0.00    +0.000 A 
ATOM     14  C   UNL     1      18.313 -37.775  10.072  0.00  0.00    +0.000 A 
ATOM     15  C   UNL     1      17.026 -37.957  10.573  0.00  0.00    +0.000 A 
BRANCH  13  16
ATOM     16  C   UNL     1      20.156 -38.185   8.440  0.00  0.00    +0.000 C 
ATOM     17  C   UNL     1      21.117 -38.997   9.221  0.00  0.00    +0.000 C 
ATOM     18  C   UNL     1      22.454 -39.227   8.646  0.00  0.00    +0.000 C 
ATOM     19  N   UNL     1      22.731 -38.793   7.341  0.00  0.00    +0.000 NA
ATOM     20  C   UNL     1      21.699 -38.192   6.594  0.00  0.00    +0.000 C 
ATOM     21  C   UNL     1      20.288 -38.604   6.969  0.00  0.00    +0.000 C 
ATOM     22  H   UNL     1      23.406 -39.368   6.827  0.00  0.00    +0.000 HD
ENDBRANCH  13  16
ENDBRANCH   8  10
ENDBRANCH   1   2
BRANCH   1  23
ATOM     23  C   UNL     1      12.826 -39.639  12.890  0.00  0.00    +0.000 C 
ATOM     24  O   UNL     1      12.931 -38.957  13.921  0.00  0.00    +0.000 OA
BRANCH  23  25
ATOM     25  C   UNL     1      12.752 -41.137  13.038  0.00  0.00    +0.000 C 
BRANCH  25  26
ATOM     26  C   UNL     1      11.611 -41.703  12.294  0.00  0.00    +0.000 A 
ATOM     27  CA  UNL     1      10.278 -41.775  12.626  0.00  0.00    +0.000 A 
ATOM     28  N   UNL     1       9.599 -42.399  11.630  0.00  0.00    +0.000 N 
ATOM     29  C   UNL     1      10.442 -42.751  10.634  0.00  0.00    +0.000 A 
ATOM     30  C   UNL     1      11.700 -42.316  11.049  0.00  0.00    +0.000 A 
ATOM     31  C   UNL     1      12.760 -42.565  10.199  0.00  0.00    +0.000 A 
ATOM     32  C   UNL     1      12.566 -43.220   8.991  0.00  0.00    +0.000 A 
ATOM     33  C   UNL     1      11.303 -43.645   8.600  0.00  0.00    +0.000 A 
ATOM     34  C   UNL     1      10.240 -43.402   9.437  0.00  0.00    +0.000 A 
ATOM     35  H   UNL     1       8.572 -42.594  11.606  0.00  0.00    +0.000 HD
BRANCH  32  36
ATOM     36  C   UNL     1      13.695 -43.488   8.120  0.00  0.00    +0.000 C 
ATOM     37  O   UNL     1      13.800 -44.589   7.555  0.00  0.00    +0.000 OA
BRANCH  36  38
ATOM     38  O   UNL     1      14.654 -42.514   7.923  0.00  0.00    +0.000 OA
ATOM     39  H   UNL     1      14.427 -41.546   7.858  0.00  0.00    +0.000 HD
ENDBRANCH  36  38
ENDBRANCH  32  36
BRANCH  27  40
ATOM     40  C   UNL     1       9.727 -41.252  13.862  0.00  0.00    +0.000 C 
ATOM     41  O   UNL     1       9.527 -41.958  14.871  0.00  0.00    +0.000 OA
BRANCH  40  42
ATOM     42  OXT UNL     1       9.407 -39.904  13.925  0.00  0.00    +0.000 OA
ATOM     43  HXT UNL     1       8.728 -39.542  14.596  0.00  0.00    +0.000 HD
ENDBRANCH  40  42
ENDBRANCH  27  40
ENDBRANCH  25  26
ENDBRANCH  23  25
ENDBRANCH   1  23
TORSDOF 10
ENDMDL
