MODEL 1
REMARK VINA RESULT:    -8.201      0.000      0.000
REMARK INTER + INTRA:         -18.036
REMARK INTER:                 -15.632
REMARK INTRA:                  -2.404
REMARK UNBOUND:                -2.404
REMARK  Name = 
REMARK  17 active torsions:
REMARK  status: ('A' for Active; 'I' for Inactive)
REMARK    1  A    between atoms: S_1  and  N_4
REMARK    2  A    between atoms: S_1  and  C_9
REMARK    3  A    between atoms: N_4  and  C_5
REMARK    4  A    between atoms: C_5  and  C_6
REMARK    5  A    between atoms: C_6  and  O_8
REMARK    6  A    between atoms: C_12  and  N_13
REMARK    7  A    between atoms: C_14  and  O_16
REMARK    8  A    between atoms: O_16  and  C_17
REMARK    9  A    between atoms: C_19  and  N_20
REMARK   10  A    between atoms: N_20  and  C_21
REMARK   11  A    between atoms: C_21  and  C_22
REMARK   12  A    between atoms: C_21  and  C_28
REMARK   13  A    between atoms: C_34  and  C_36
REMARK   14  A    between atoms: C_36  and  N_37
REMARK   15  A    between atoms: N_37  and  C_38
REMARK   16  A    between atoms: C_38  and  C_39
REMARK   17  A    between atoms: C_39  and  C_40
REMARK                            x       y       z     vdW  Elec       q    Type
REMARK                         _______ _______ _______ _____ _____    ______ ____
ROOT
ATOM      1  N   UNL     1      21.950 -42.979   7.334  0.00  0.00    +0.000 N 
ATOM      2  C   UNL     1      20.608 -43.043   7.720  0.00  0.00    +0.000 C 
ATOM      3  O   UNL     1      20.007 -44.172   7.578  0.00  0.00    +0.000 OA
ENDROOT
BRANCH   1   9
ATOM      4  C   UNL     1      22.553 -44.176   5.271  0.00  0.00    +0.000 A 
ATOM      5  C   UNL     1      22.925 -45.368   4.620  0.00  0.00    +0.000 A 
ATOM      6  C   UNL     1      23.152 -46.498   5.393  0.00  0.00    +0.000 A 
ATOM      7  C   UNL     1      23.030 -46.512   6.763  0.00  0.00    +0.000 A 
ATOM      8  C   UNL     1      22.655 -45.313   7.382  0.00  0.00    +0.000 A 
ATOM      9  C   UNL     1      22.420 -44.160   6.623  0.00  0.00    +0.000 A 
BRANCH   7  10
ATOM     10  N   UNL     1      23.264 -47.616   7.605  0.00  0.00    +0.000 N 
ATOM     11  C   UNL     1      22.313 -48.552   8.064  0.00  0.00    +0.000 C 
ATOM     12  O   UNL     1      21.130 -48.457   7.730  0.00  0.00    +0.000 OA
ATOM     13  H   UNL     1      24.257 -47.793   7.954  0.00  0.00    +0.000 HD
BRANCH  11  14
ATOM     14  O   UNL     1      22.688 -49.609   8.908  0.00  0.00    +0.000 OA
ATOM     15  C   UNL     1      23.499 -50.644   8.369  0.00  0.00    +0.000 C 
ENDBRANCH  11  14
ENDBRANCH   7  10
BRANCH   4  16
ATOM     16  S   UNL     1      22.282 -42.802   4.280  0.00  0.00    +0.000 S 
ATOM     17  O   UNL     1      23.621 -42.008   4.336  0.00  0.00    +0.000 OA
ATOM     18  O   UNL     1      21.230 -41.873   4.706  0.00  0.00    +0.000 OA
BRANCH  16  19
ATOM     19  N   UNL     1      22.040 -43.229   2.633  0.00  0.00    +0.000 NA
ATOM     20  H   UNL     1      21.956 -44.259   2.592  0.00  0.00    +0.000 HD
BRANCH  19  21
ATOM     21  C   UNL     1      20.987 -42.546   1.967  0.00  0.00    +0.000 C 
BRANCH  21  22
ATOM     22  C   UNL     1      20.771 -43.093   0.595  0.00  0.00    +0.000 C 
ATOM     23  O   UNL     1      21.716 -43.587  -0.033  0.00  0.00    +0.000 OA
BRANCH  22  24
ATOM     24  O   UNL     1      19.515 -43.046   0.028  0.00  0.00    +0.000 OA
ATOM     25  H   UNL     1      18.747 -43.607   0.370  0.00  0.00    +0.000 HD
ENDBRANCH  22  24
ENDBRANCH  21  22
ENDBRANCH  19  21
ENDBRANCH  16  19
ENDBRANCH   4  16
ENDBRANCH   1   9
BRANCH   1  26
ATOM     26  C   UNL     1      22.957 -42.030   7.674  0.00  0.00    +0.000 C 
BRANCH  26  27
ATOM     27  C   UNL     1      22.658 -40.633   7.836  0.00  0.00    +0.000 A 
ATOM     28  C   UNL     1      22.539 -39.906   8.989  0.00  0.00    +0.000 A 
ATOM     29  C   UNL     1      22.219 -38.555   9.037  0.00  0.00    +0.000 A 
ATOM     30  C   UNL     1      21.996 -37.840   7.890  0.00  0.00    +0.000 A 
ATOM     31  C   UNL     1      22.108 -38.534   6.706  0.00  0.00    +0.000 A 
ATOM     32  C   UNL     1      22.422 -39.859   6.669  0.00  0.00    +0.000 A 
ENDBRANCH  26  27
BRANCH  26  33
ATOM     33  C   UNL     1      23.688 -42.537   8.948  0.00  0.00    +0.000 A 
ATOM     34  C   UNL     1      22.968 -42.913  10.061  0.00  0.00    +0.000 A 
ATOM     35  C   UNL     1      23.527 -43.382  11.228  0.00  0.00    +0.000 A 
ATOM     36  C   UNL     1      24.890 -43.474  11.270  0.00  0.00    +0.000 A 
ATOM     37  C   UNL     1      25.649 -43.110  10.184  0.00  0.00    +0.000 A 
ATOM     38  C   UNL     1      25.045 -42.635   9.009  0.00  0.00    +0.000 A 
ENDBRANCH  26  33
ENDBRANCH   1  26
BRANCH   2  39
ATOM     39  C   UNL     1      19.761 -41.980   8.276  0.00  0.00    +0.000 C 
BRANCH  39  40
ATOM     40  N   UNL     1      19.180 -41.145   7.225  0.00  0.00    +0.000 NA
ATOM     41  H   UNL     1      19.834 -41.060   6.425  0.00  0.00    +0.000 HD
BRANCH  40  42
ATOM     42  C   UNL     1      18.655 -39.908   7.680  0.00  0.00    +0.000 C 
BRANCH  42  43
ATOM     43  C   UNL     1      18.663 -39.746   9.158  0.00  0.00    +0.000 C 
BRANCH  43  44
ATOM     44  C   UNL     1      18.083 -38.416   9.580  0.00  0.00    +0.000 C 
ATOM     45  C   UNL     1      18.832 -37.321   9.623  0.00  0.00    +0.000 C 
ATOM     46  C   UNL     1      18.251 -36.012  10.042  0.00  0.00    +0.000 C 
ATOM     47  C   UNL     1      17.471 -36.322  11.325  0.00  0.00    +0.000 C 
ATOM     48  C   UNL     1      16.384 -37.304  11.048  0.00  0.00    +0.000 C 
ATOM     49  C   UNL     1      16.654 -38.283   9.960  0.00  0.00    +0.000 C 
ENDBRANCH  43  44
ENDBRANCH  42  43
ENDBRANCH  40  42
ENDBRANCH  39  40
ENDBRANCH   2  39
TORSDOF 16
ENDMDL
