MODEL 1
REMARK VINA RESULT:    -9.551      0.000      0.000
REMARK INTER + INTRA:         -13.542
REMARK INTER:                 -12.901
REMARK INTRA:                  -0.640
REMARK UNBOUND:                -0.640
REMARK  Name = 
REMARK  8 active torsions:
REMARK  status: ('A' for Active; 'I' for Inactive)
REMARK    1  A    between atoms: C_2  and  C_4
REMARK    2  A    between atoms: C_7  and  C_8
REMARK    3  A    between atoms: C_8  and  C_9
REMARK    4  A    between atoms: C_18  and  N_19
REMARK    5  A    between atoms: C_25  and  C_26
REMARK    6  A    between atoms: C_31  and  C_33
REMARK    7  A    between atoms: C_33  and  C_34
REMARK    8  A    between atoms: C_34  and  C_35
REMARK                            x       y       z     vdW  Elec       q    Type
REMARK                         _______ _______ _______ _____ _____    ______ ____
ROOT
ATOM      1  N   UNL     1      17.155 -39.759   9.595  0.00  0.00    +0.000 N 
ATOM      2  C   UNL     1      17.104 -38.384   9.924  0.00  0.00    +0.000 A 
ATOM      3  N   UNL     1      18.266 -37.821  10.404  0.00  0.00    +0.000 NA
ATOM      4  C   UNL     1      18.325 -36.559  10.779  0.00  0.00    +0.000 A 
ATOM      5  C   UNL     1      17.219 -35.749  10.704  0.00  0.00    +0.000 A 
ATOM      6  C   UNL     1      16.054 -36.273  10.233  0.00  0.00    +0.000 A 
ATOM      7  C   UNL     1      16.000 -37.616   9.836  0.00  0.00    +0.000 A 
ATOM      8  C   UNL     1      14.698 -38.131   9.285  0.00  0.00    +0.000 C 
ATOM      9  C   UNL     1      16.056 -40.611   9.632  0.00  0.00    +0.000 A 
ATOM     10  N   UNL     1      15.410 -40.988   8.538  0.00  0.00    +0.000 NA
ATOM     11  C   UNL     1      14.376 -41.832   8.595  0.00  0.00    +0.000 A 
ATOM     12  C   UNL     1      13.944 -42.341   9.791  0.00  0.00    +0.000 A 
ATOM     13  C   UNL     1      14.569 -41.993  10.964  0.00  0.00    +0.000 A 
ATOM     14  C   UNL     1      15.631 -41.122  10.881  0.00  0.00    +0.000 A 
ENDROOT
BRANCH   1  24
ATOM     15  N   UNL     1      19.139 -39.705   8.203  0.00  0.00    +0.000 N 
ATOM     16  C   UNL     1      18.429 -39.265   7.082  0.00  0.00    +0.000 C 
ATOM     17  O   UNL     1      17.198 -39.376   6.909  0.00  0.00    +0.000 OA
ATOM     18  C   UNL     1      19.162 -38.588   5.950  0.00  0.00    +0.000 C 
ATOM     19  C   UNL     1      20.585 -39.441   8.141  0.00  0.00    +0.000 C 
ATOM     20  C   UNL     1      21.236 -40.694   8.688  0.00  0.00    +0.000 C 
ATOM     21  C   UNL     1      20.562 -41.886   8.030  0.00  0.00    +0.000 C 
ATOM     22  C   UNL     1      19.572 -42.581   8.878  0.00  0.00    +0.000 C 
ATOM     23  C   UNL     1      18.265 -41.825   9.049  0.00  0.00    +0.000 C 
ATOM     24  C   UNL     1      18.460 -40.350   9.285  0.00  0.00    +0.000 C 
BRANCH  21  25
ATOM     25  C   UNL     1      21.656 -42.786   7.541  0.00  0.00    +0.000 C 
BRANCH  25  26
ATOM     26  C   UNL     1      21.879 -42.824   6.102  0.00  0.00    +0.000 A 
ATOM     27  C   UNL     1      21.255 -43.633   5.190  0.00  0.00    +0.000 A 
ATOM     28  N   UNL     1      21.501 -43.539   3.869  0.00  0.00    +0.000 NA
ATOM     29  C   UNL     1      22.370 -42.649   3.386  0.00  0.00    +0.000 A 
ATOM     30  C   UNL     1      23.014 -41.826   4.258  0.00  0.00    +0.000 A 
ATOM     31  N   UNL     1      22.768 -41.921   5.565  0.00  0.00    +0.000 NA
ATOM     32 CL   UNL     1      20.160 -44.882   5.709  0.00  0.00    +0.000 Cl
ENDBRANCH  25  26
ENDBRANCH  21  25
ENDBRANCH   1  24
BRANCH  13  33
ATOM     33  C   UNL     1      14.089 -42.541  12.248  0.00  0.00    +0.000 C 
BRANCH  33  34
ATOM     34  C   UNL     1      13.418 -41.532  13.114  0.00  0.00    +0.000 C 
BRANCH  34  35
ATOM     35  C   UNL     1      12.089 -41.034  12.607  0.00  0.00    +0.000 C 
ATOM     36  C   UNL     1      10.992 -41.050  13.596  0.00  0.00    +0.000 C 
ATOM     37  C   UNL     1      10.715 -39.733  14.260  0.00  0.00    +0.000 C 
ATOM     38  N   UNL     1      10.764 -38.618  13.364  0.00  0.00    +0.000 NA
ATOM     39  C   UNL     1      12.124 -38.540  12.843  0.00  0.00    +0.000 C 
ATOM     40  C   UNL     1      12.299 -39.717  11.916  0.00  0.00    +0.000 C 
ATOM     41  H   UNL     1      10.562 -37.755  13.942  0.00  0.00    +0.000 HD
ENDBRANCH  34  35
ENDBRANCH  33  34
ENDBRANCH  13  33
TORSDOF 6
ENDMDL
