MODEL 1
REMARK VINA RESULT:    -9.126      0.000      0.000
REMARK INTER + INTRA:         -18.888
REMARK INTER:                 -15.528
REMARK INTRA:                  -3.360
REMARK UNBOUND:                -3.360
REMARK  Name = 
REMARK  16 active torsions:
REMARK  status: ('A' for Active; 'I' for Inactive)
REMARK    1  A    between atoms: C_1  and  C_17
REMARK    2  A    between atoms: C_3  and  C_11
REMARK    3  A    between atoms: C_13  and  C_16
REMARK    4  A    between atoms: C_17  and  O_19
REMARK    5  A    between atoms: O_19  and  N_20
REMARK    6  A    between atoms: N_20  and  C_21
REMARK    7  A    between atoms: C_22  and  C_32
REMARK    8  A    between atoms: C_24  and  N_25
REMARK    9  A    between atoms: N_25  and  C_26
REMARK   10  A    between atoms: N_25  and  C_28
REMARK   11  A    between atoms: C_26  and  C_27
REMARK   12  A    between atoms: C_28  and  C_29
REMARK   13  A    between atoms: C_33  and  C_35
REMARK   14  A    between atoms: C_35  and  N_36
REMARK   15  A    between atoms: N_36  and  C_37
REMARK   16  A    between atoms: C_37  and  C_38
REMARK                            x       y       z     vdW  Elec       q    Type
REMARK                         _______ _______ _______ _____ _____    ______ ____
ROOT
ATOM      1  N   UNL     1      15.383 -42.130   9.039  0.00  0.00    +0.000 N 
ATOM      2  C   UNL     1      14.947 -43.451   9.246  0.00  0.00    +0.000 C 
ATOM      3  O   UNL     1      14.160 -43.661  10.233  0.00  0.00    +0.000 OA
ENDROOT
BRANCH   1   4
ATOM      4  C   UNL     1      14.729 -41.028   9.743  0.00  0.00    +0.000 A 
ATOM      5  C   UNL     1      13.563 -40.466   9.324  0.00  0.00    +0.000 A 
ATOM      6  C   UNL     1      12.936 -39.474  10.087  0.00  0.00    +0.000 A 
ATOM      7  C   UNL     1      13.478 -39.036  11.285  0.00  0.00    +0.000 A 
ATOM      8  C   UNL     1      14.653 -39.609  11.688  0.00  0.00    +0.000 A 
ATOM      9  C   UNL     1      15.285 -40.596  10.938  0.00  0.00    +0.000 A 
ATOM     10  C   UNL     1      12.925 -40.862   8.044  0.00  0.00    +0.000 C 
BRANCH   7  11
ATOM     11  N   UNL     1      12.792 -38.047  12.063  0.00  0.00    +0.000 N 
BRANCH  11  12
ATOM     12  C   UNL     1      11.700 -37.256  11.532  0.00  0.00    +0.000 C 
ATOM     13  C   UNL     1      12.224 -35.967  10.916  0.00  0.00    +0.000 C 
ENDBRANCH  11  12
BRANCH  11  14
ATOM     14  C   UNL     1      13.106 -37.792  13.466  0.00  0.00    +0.000 C 
ATOM     15  C   UNL     1      14.099 -36.668  13.614  0.00  0.00    +0.000 C 
ENDBRANCH  11  14
ENDBRANCH   7  11
ENDBRANCH   1   4
BRANCH   1  16
ATOM     16  O   UNL     1      16.405 -41.808   8.193  0.00  0.00    +0.000 OA
BRANCH  16  17
ATOM     17  C   UNL     1      16.774 -40.602   7.710  0.00  0.00    +0.000 C 
ATOM     18  O   UNL     1      16.322 -40.274   6.555  0.00  0.00    +0.000 OA
BRANCH  17  19
ATOM     19  C   UNL     1      17.632 -39.608   8.337  0.00  0.00    +0.000 A 
ATOM     20  C   UNL     1      17.063 -38.391   8.734  0.00  0.00    +0.000 A 
ATOM     21  C   UNL     1      17.804 -37.418   9.367  0.00  0.00    +0.000 A 
ATOM     22  N   UNL     1      19.098 -37.714   9.574  0.00  0.00    +0.000 NA
ATOM     23  C   UNL     1      19.682 -38.871   9.207  0.00  0.00    +0.000 A 
ATOM     24  C   UNL     1      18.956 -39.865   8.570  0.00  0.00    +0.000 A 
ATOM     25  C   UNL     1      19.604 -41.042   8.190  0.00  0.00    +0.000 A 
ATOM     26  C   UNL     1      20.955 -41.243   8.431  0.00  0.00    +0.000 A 
ATOM     27  C   UNL     1      21.679 -40.258   9.062  0.00  0.00    +0.000 A 
ATOM     28  C   UNL     1      21.029 -39.104   9.433  0.00  0.00    +0.000 A 
BRANCH  21  29
ATOM     29  C   UNL     1      17.222 -36.147   9.793  0.00  0.00    +0.000 A 
ATOM     30  O   UNL     1      17.437 -35.008   9.183  0.00  0.00    +0.000 OA
ATOM     31  C   UNL     1      16.810 -34.009   9.749  0.00  0.00    +0.000 A 
ATOM     32  C   UNL     1      16.122 -34.541  10.827  0.00  0.00    +0.000 A 
ATOM     33  C   UNL     1      16.390 -35.886  10.846  0.00  0.00    +0.000 A 
ATOM     34  C   UNL     1      16.779 -32.563   9.384  0.00  0.00    +0.000 C 
ENDBRANCH  21  29
ENDBRANCH  17  19
ENDBRANCH  16  17
ENDBRANCH   1  16
BRANCH   2  35
ATOM     35  C   UNL     1      15.306 -44.627   8.422  0.00  0.00    +0.000 C 
BRANCH  35  36
ATOM     36  N   UNL     1      16.282 -45.466   9.097  0.00  0.00    +0.000 NA
ATOM     37  H   UNL     1      16.742 -44.971   9.865  0.00  0.00    +0.000 HD
BRANCH  36  38
ATOM     38  C   UNL     1      17.311 -45.965   8.190  0.00  0.00    +0.000 C 
BRANCH  38  39
ATOM     39  C   UNL     1      18.532 -45.046   8.247  0.00  0.00    +0.000 C 
ATOM     40  C   UNL     1      18.643 -44.280   6.947  0.00  0.00    +0.000 C 
ATOM     41  C   UNL     1      20.002 -44.476   6.353  0.00  0.00    +0.000 C 
ATOM     42  C   UNL     1      20.129 -45.968   6.010  0.00  0.00    +0.000 C 
ATOM     43  C   UNL     1      20.214 -46.699   7.343  0.00  0.00    +0.000 C 
ATOM     44  C   UNL     1      19.758 -45.843   8.485  0.00  0.00    +0.000 C 
ENDBRANCH  38  39
ENDBRANCH  36  38
ENDBRANCH  35  36
ENDBRANCH   2  35
TORSDOF 12
ENDMDL
