MODEL 1
REMARK VINA RESULT:    -8.514      0.000      0.000
REMARK INTER + INTRA:         -12.103
REMARK INTER:                 -12.744
REMARK INTRA:                   0.641
REMARK UNBOUND:                 0.641
REMARK  Name = 
REMARK  11 active torsions:
REMARK  status: ('A' for Active; 'I' for Inactive)
REMARK    1  A    between atoms: N_1  and  C_2
REMARK    2  A    between atoms: N_5  and  C_8
REMARK    3  A    between atoms: C_8  and  C_9
REMARK    4  A    between atoms: C_19  and  C_20
REMARK    5  A    between atoms: C_21  and  C_39
REMARK    6  A    between atoms: C_22  and  C_36
REMARK    7  A    between atoms: C_36  and  O_38
REMARK    8  A    between atoms: C_39  and  O_41
REMARK    9  A    between atoms: O_41  and  C_42
REMARK   10  A    between atoms: C_42  and  C_43
REMARK   11  A    between atoms: C_42  and  C_44
REMARK                            x       y       z     vdW  Elec       q    Type
REMARK                         _______ _______ _______ _____ _____    ______ ____
ROOT
ATOM      1  C   UNL     1      20.537 -41.773   7.655  0.00  0.00    +0.000 C 
ATOM      2  C   UNL     1      20.616 -42.806   6.569  0.00  0.00    +0.000 C 
ATOM      3  C   UNL     1      21.981 -42.897   5.896  0.00  0.00    +0.000 C 
ATOM      4  C   UNL     1      23.014 -42.095   6.648  0.00  0.00    +0.000 C 
ATOM      5  C   UNL     1      22.856 -42.298   8.096  0.00  0.00    +0.000 A 
ATOM      6  C   UNL     1      21.610 -42.077   8.648  0.00  0.00    +0.000 A 
ATOM      7  C   UNL     1      21.479 -42.175  10.002  0.00  0.00    +0.000 A 
ATOM      8  C   UNL     1      22.557 -42.497  10.838  0.00  0.00    +0.000 A 
ATOM      9  C   UNL     1      23.788 -42.718  10.274  0.00  0.00    +0.000 A 
ATOM     10  C   UNL     1      23.935 -42.616   8.877  0.00  0.00    +0.000 A 
ATOM     11  C   UNL     1      22.403 -40.703   6.472  0.00  0.00    +0.000 A 
ATOM     12  C   UNL     1      21.116 -40.559   6.950  0.00  0.00    +0.000 A 
ATOM     13  C   UNL     1      20.497 -39.364   6.771  0.00  0.00    +0.000 A 
ATOM     14  C   UNL     1      21.154 -38.315   6.124  0.00  0.00    +0.000 A 
ATOM     15  C   UNL     1      22.428 -38.503   5.670  0.00  0.00    +0.000 A 
ATOM     16  C   UNL     1      23.098 -39.718   5.834  0.00  0.00    +0.000 A 
ENDROOT
BRANCH   1  22
ATOM     17  N   UNL     1      18.214 -40.790   7.822  0.00  0.00    +0.000 NA
ATOM     18  C   UNL     1      17.097 -41.626   7.318  0.00  0.00    +0.000 C 
ATOM     19  C   UNL     1      16.422 -42.374   8.467  0.00  0.00    +0.000 C 
ATOM     20  N   UNL     1      17.387 -42.716   9.454  0.00  0.00    +0.000 NA
ATOM     21  C   UNL     1      18.637 -42.903   8.700  0.00  0.00    +0.000 C 
ATOM     22  C   UNL     1      19.276 -41.565   8.348  0.00  0.00    +0.000 C 
ATOM     23  H   UNL     1      17.457 -42.236  10.320  0.00  0.00    +0.000 HD
BRANCH  17  24
ATOM     24  C   UNL     1      17.510 -39.929   8.770  0.00  0.00    +0.000 C 
ATOM     25  C   UNL     1      18.307 -39.215   9.779  0.00  0.00    +0.000 C 
ATOM     26  C   UNL     1      17.773 -37.835  10.101  0.00  0.00    +0.000 C 
ATOM     27  N   UNL     1      16.375 -37.656  10.041  0.00  0.00    +0.000 NA
ATOM     28  C   UNL     1      15.689 -38.351   9.018  0.00  0.00    +0.000 C 
ATOM     29  C   UNL     1      16.722 -38.845   8.016  0.00  0.00    +0.000 C 
BRANCH  27  30
ATOM     30  C   UNL     1      15.723 -37.482  11.289  0.00  0.00    +0.000 C 
BRANCH  30  31
ATOM     31  C   UNL     1      15.035 -36.140  11.284  0.00  0.00    +0.000 A 
ATOM     32  C   UNL     1      15.776 -34.987  11.163  0.00  0.00    +0.000 A 
ATOM     33  C   UNL     1      15.148 -33.781  11.149  0.00  0.00    +0.000 A 
ATOM     34  C   UNL     1      13.779 -33.669  11.253  0.00  0.00    +0.000 A 
ATOM     35  C   UNL     1      13.041 -34.828  11.375  0.00  0.00    +0.000 A 
ATOM     36  C   UNL     1      13.669 -36.052  11.389  0.00  0.00    +0.000 A 
ENDBRANCH  30  31
ENDBRANCH  27  30
ENDBRANCH  17  24
ENDBRANCH   1  22
BRANCH   3  37
ATOM     37  C   UNL     1      22.490 -44.254   5.720  0.00  0.00    +0.000 C 
ATOM     38  O   UNL     1      23.516 -44.695   6.309  0.00  0.00    +0.000 OA
BRANCH  37  39
ATOM     39  O   UNL     1      21.850 -45.145   4.873  0.00  0.00    +0.000 OA
ATOM     40  H   UNL     1      22.344 -45.566   4.073  0.00  0.00    +0.000 HD
ENDBRANCH  37  39
ENDBRANCH   3  37
BRANCH   2  41
ATOM     41  C   UNL     1      20.306 -44.195   6.860  0.00  0.00    +0.000 C 
ATOM     42  O   UNL     1      19.466 -44.821   6.105  0.00  0.00    +0.000 OA
BRANCH  41  43
ATOM     43  O   UNL     1      20.827 -44.945   7.880  0.00  0.00    +0.000 OA
BRANCH  43  44
ATOM     44  C   UNL     1      20.655 -46.347   7.945  0.00  0.00    +0.000 C 
ATOM     45  C   UNL     1      19.690 -46.710   9.083  0.00  0.00    +0.000 C 
ATOM     46  C   UNL     1      21.920 -47.104   8.191  0.00  0.00    +0.000 C 
ENDBRANCH  43  44
ENDBRANCH  41  43
ENDBRANCH   2  41
TORSDOF 9
ENDMDL
