MODEL 1
REMARK VINA RESULT:    -9.035      0.000      0.000
REMARK INTER + INTRA:         -16.248
REMARK INTER:                 -14.053
REMARK INTRA:                  -2.196
REMARK UNBOUND:                -2.196
REMARK  Name = 
REMARK  11 active torsions:
REMARK  status: ('A' for Active; 'I' for Inactive)
REMARK    1  A    between atoms: N_1  and  C_13
REMARK    2  A    between atoms: C_13  and  C_14
REMARK    3  A    between atoms: C_14  and  O_16
REMARK    4  A    between atoms: O_16  and  C_17
REMARK    5  A    between atoms: C_17  and  N_18
REMARK    6  A    between atoms: N_18  and  C_19
REMARK    7  A    between atoms: N_18  and  C_25
REMARK    8  A    between atoms: C_25  and  C_26
REMARK    9  A    between atoms: N_33  and  C_34
REMARK   10  A    between atoms: C_34  and  C_35
REMARK   11  A    between atoms: C_35  and  O_37
REMARK                            x       y       z     vdW  Elec       q    Type
REMARK                         _______ _______ _______ _____ _____    ______ ____
ROOT
ATOM      1  C   UNL     1      13.342 -40.244  10.291  0.00  0.00    +0.000 C 
ATOM      2  C   UNL     1      12.011 -40.619  10.865  0.00  0.00    +0.000 C 
ATOM      3  C   UNL     1      12.328 -41.610  11.969  0.00  0.00    +0.000 C 
ATOM      4  O   UNL     1      13.666 -41.918  11.769  0.00  0.00    +0.000 OA
ATOM      5  C   UNL     1      14.296 -40.746  11.333  0.00  0.00    +0.000 C 
ATOM      6  C   UNL     1      11.516 -42.892  11.827  0.00  0.00    +0.000 C 
ATOM      7  C   UNL     1      10.107 -42.691  12.297  0.00  0.00    +0.000 C 
ATOM      8  N   UNL     1      10.048 -42.478  13.743  0.00  0.00    +0.000 NA
ATOM      9  C   UNL     1      11.365 -42.118  14.241  0.00  0.00    +0.000 C 
ATOM     10  C   UNL     1      12.039 -41.077  13.344  0.00  0.00    +0.000 C 
ENDROOT
BRANCH   1  11
ATOM     11  O   UNL     1      13.450 -38.856  10.032  0.00  0.00    +0.000 OA
BRANCH  11  12
ATOM     12  C   UNL     1      13.209 -37.884  10.957  0.00  0.00    +0.000 C 
ATOM     13  O   UNL     1      12.059 -37.391  11.039  0.00  0.00    +0.000 OA
BRANCH  12  14
ATOM     14  C   UNL     1      14.233 -37.384  11.867  0.00  0.00    +0.000 C 
BRANCH  14  15
ATOM     15  N   UNL     1      15.232 -36.546  11.275  0.00  0.00    +0.000 N 
ATOM     16  C   UNL     1      15.211 -35.214  11.127  0.00  0.00    +0.000 A 
ATOM     17  C   UNL     1      16.375 -34.838  10.493  0.00  0.00    +0.000 A 
ATOM     18  C   UNL     1      17.139 -35.961  10.242  0.00  0.00    +0.000 A 
ATOM     19  C   UNL     1      16.398 -37.016  10.742  0.00  0.00    +0.000 A 
ATOM     20  C   UNL     1      16.939 -38.278  10.619  0.00  0.00    +0.000 A 
ATOM     21  C   UNL     1      18.170 -38.453  10.018  0.00  0.00    +0.000 A 
ATOM     22  C   UNL     1      18.915 -37.395   9.514  0.00  0.00    +0.000 A 
ATOM     23  C   UNL     1      18.362 -36.143   9.645  0.00  0.00    +0.000 A 
ATOM     24  C   UNL     1      16.422 -33.360  10.288  0.00  0.00    +0.000 C 
ATOM     25  C   UNL     1      14.993 -32.934  10.446  0.00  0.00    +0.000 C 
ATOM     26  C   UNL     1      14.425 -33.965  11.377  0.00  0.00    +0.000 C 
ENDBRANCH  14  15
ENDBRANCH  12  14
ENDBRANCH  11  12
ENDBRANCH   1  11
BRANCH   1  27
ATOM     27  N   UNL     1      13.651 -40.945   9.042  0.00  0.00    +0.000 N 
BRANCH  27  28
ATOM     28  C   UNL     1      14.963 -40.945   8.507  0.00  0.00    +0.000 A 
ATOM     29  C   UNL     1      15.897 -41.829   8.989  0.00  0.00    +0.000 A 
ATOM     30  C   UNL     1      17.205 -41.843   8.482  0.00  0.00    +0.000 A 
ATOM     31  C   UNL     1      17.538 -40.941   7.481  0.00  0.00    +0.000 A 
ATOM     32  C   UNL     1      16.586 -40.063   7.012  0.00  0.00    +0.000 A 
ATOM     33  C   UNL     1      15.289 -40.053   7.518  0.00  0.00    +0.000 A 
ENDBRANCH  27  28
BRANCH  27  34
ATOM     34  C   UNL     1      12.633 -41.662   8.311  0.00  0.00    +0.000 C 
ATOM     35  C   UNL     1      12.903 -43.155   8.338  0.00  0.00    +0.000 C 
ENDBRANCH  27  34
ENDBRANCH   1  27
BRANCH   8  36
ATOM     36  C   UNL     1       9.070 -41.472  14.056  0.00  0.00    +0.000 C 
BRANCH  36  37
ATOM     37  C   UNL     1       7.712 -41.814  13.601  0.00  0.00    +0.000 C 
ATOM     38  O   UNL     1       7.060 -42.735  14.156  0.00  0.00    +0.000 OA
BRANCH  37  39
ATOM     39  O   UNL     1       7.107 -41.124  12.537  0.00  0.00    +0.000 OA
ATOM     40  H   UNL     1       6.974 -40.126  12.622  0.00  0.00    +0.000 HD
ENDBRANCH  37  39
ENDBRANCH  36  37
ENDBRANCH   8  36
TORSDOF 10
ENDMDL
