MODEL 1
REMARK VINA RESULT:    -7.167      0.000      0.000
REMARK INTER + INTRA:         -11.913
REMARK INTER:                 -11.567
REMARK INTRA:                  -0.346
REMARK UNBOUND:                -0.346
REMARK  Name = 
REMARK  13 active torsions:
REMARK  status: ('A' for Active; 'I' for Inactive)
REMARK    1  A    between atoms: C_2  and  S_15
REMARK    2  A    between atoms: C_3  and  C_4
REMARK    3  A    between atoms: C_10  and  O_13
REMARK    4  A    between atoms: O_13  and  C_14
REMARK    5  A    between atoms: S_15  and  C_16
REMARK    6  A    between atoms: S_15  and  C_32
REMARK    7  A    between atoms: C_16  and  C_17
REMARK    8  A    between atoms: C_17  and  O_19
REMARK    9  A    between atoms: N_21  and  C_22
REMARK   10  A    between atoms: C_22  and  C_23
REMARK   11  A    between atoms: C_32  and  C_33
REMARK   12  A    between atoms: C_33  and  O_35
REMARK   13  A    between atoms: O_35  and  C_36
REMARK                            x       y       z     vdW  Elec       q    Type
REMARK                         _______ _______ _______ _____ _____    ______ ____
ROOT
ATOM      1  S   UNL     1      21.905 -42.078   7.911  0.00  0.00    +0.000 S 
ATOM      2  H   UNL     1      21.507 -43.737   7.738  0.00  0.00    +0.000 HD
ENDROOT
BRANCH   1   4
ATOM      3  N   UNL     1      20.312 -40.199   8.909  0.00  0.00    +0.000 NA
ATOM      4  C   UNL     1      20.403 -41.517   8.515  0.00  0.00    +0.000 A 
ATOM      5  C   UNL     1      19.274 -42.298   8.636  0.00  0.00    +0.000 A 
ATOM      6  C   UNL     1      18.035 -41.737   9.154  0.00  0.00    +0.000 A 
ATOM      7  C   UNL     1      18.072 -40.391   9.513  0.00  0.00    +0.000 A 
ATOM      8  C   UNL     1      19.163 -39.714   9.380  0.00  0.00    +0.000 A 
ATOM      9  C   UNL     1      19.205 -38.277   9.729  0.00  0.00    +0.000 A 
ATOM     10  C   UNL     1      18.048 -37.730  10.190  0.00  0.00    +0.000 A 
ATOM     11  C   UNL     1      16.908 -38.474  10.321  0.00  0.00    +0.000 A 
ATOM     12  C   UNL     1      16.884 -39.810   9.991  0.00  0.00    +0.000 A 
BRANCH   5  13
ATOM     13  C   UNL     1      19.256 -43.610   8.332  0.00  0.00    +0.000 C 
ATOM     14  N   UNL     1      19.254 -44.891   8.052  0.00  0.00    +0.000 NA
ENDBRANCH   5  13
BRANCH  10  15
ATOM     15  O   UNL     1      18.037 -36.350  10.532  0.00  0.00    +0.000 OA
ATOM     16  C   UNL     1      16.961 -35.880  11.315  0.00  0.00    +0.000 C 
ENDBRANCH  10  15
ENDBRANCH   1   4
BRANCH   1  17
ATOM     17  C   UNL     1      22.901 -42.262   9.214  0.00  0.00    +0.000 C 
ATOM     18  C   UNL     1      22.569 -43.663   9.802  0.00  0.00    +0.000 C 
ATOM     19  N   UNL     1      23.750 -44.248  10.436  0.00  0.00    +0.000 NA
ATOM     20  C   UNL     1      24.567 -44.733   9.300  0.00  0.00    +0.000 C 
ATOM     21  C   UNL     1      24.901 -43.552   8.401  0.00  0.00    +0.000 C 
ATOM     22  C   UNL     1      24.394 -42.292   9.045  0.00  0.00    +0.000 C 
BRANCH  17  23
ATOM     23  C   UNL     1      22.625 -41.296  10.296  0.00  0.00    +0.000 C 
ATOM     24  O   UNL     1      22.106 -41.586  11.403  0.00  0.00    +0.000 OA
BRANCH  23  25
ATOM     25  O   UNL     1      22.924 -39.910  10.200  0.00  0.00    +0.000 OA
ATOM     26  H   UNL     1      23.951 -39.706  10.218  0.00  0.00    +0.000 HD
ENDBRANCH  23  25
ENDBRANCH  17  23
BRANCH  19  27
ATOM     27  C   UNL     1      23.265 -45.369  11.182  0.00  0.00    +0.000 C 
BRANCH  27  28
ATOM     28  C   UNL     1      24.129 -45.799  12.311  0.00  0.00    +0.000 A 
ATOM     29  C   UNL     1      24.045 -47.066  12.745  0.00  0.00    +0.000 A 
ATOM     30  N   UNL     1      24.786 -47.526  13.809  0.00  0.00    +0.000 NA
ATOM     31  C   UNL     1      25.606 -46.564  14.358  0.00  0.00    +0.000 A 
ATOM     32  C   UNL     1      25.707 -45.295  13.944  0.00  0.00    +0.000 A 
ATOM     33  C   UNL     1      24.961 -44.809  12.863  0.00  0.00    +0.000 A 
ENDBRANCH  27  28
ENDBRANCH  19  27
ENDBRANCH   1  17
BRANCH   1  34
ATOM     34  C   UNL     1      22.327 -41.671   6.492  0.00  0.00    +0.000 C 
ATOM     35  N   UNL     1      23.179 -42.476   5.719  0.00  0.00    +0.000 NA
ATOM     36  C   UNL     1      23.513 -41.967   4.439  0.00  0.00    +0.000 C 
ATOM     37  S   UNL     1      22.012 -40.961   4.080  0.00  0.00    +0.000 S 
ATOM     38  C   UNL     1      21.039 -41.689   5.485  0.00  0.00    +0.000 C 
ATOM     39  H   UNL     1      22.835 -43.451   5.636  0.00  0.00    +0.000 HD
BRANCH  34  40
ATOM     40  C   UNL     1      22.659 -40.220   6.300  0.00  0.00    +0.000 C 
ATOM     41  O   UNL     1      23.751 -39.718   6.388  0.00  0.00    +0.000 OA
BRANCH  40  42
ATOM     42  O   UNL     1      21.576 -39.336   5.978  0.00  0.00    +0.000 OA
ATOM     43  C   UNL     1      21.652 -37.998   6.496  0.00  0.00    +0.000 C 
ENDBRANCH  40  42
ENDBRANCH  34  40
ENDBRANCH   1  34
TORSDOF 11
ENDMDL
