MODEL 1
REMARK VINA RESULT:    -8.379      0.000      0.000
REMARK INTER + INTRA:         -14.032
REMARK INTER:                 -12.543
REMARK INTRA:                  -1.489
REMARK UNBOUND:                -1.489
REMARK  Name = 
REMARK  10 active torsions:
REMARK  status: ('A' for Active; 'I' for Inactive)
REMARK    1  A    between atoms: C_2  and  S_7
REMARK    2  A    between atoms: S_7  and  N_8
REMARK    3  A    between atoms: S_7  and  C_35
REMARK    4  A    between atoms: N_8  and  C_9
REMARK    5  A    between atoms: C_13  and  C_14
REMARK    6  A    between atoms: C_13  and  C_24
REMARK    7  A    between atoms: C_14  and  O_16
REMARK    8  A    between atoms: C_31  and  C_33
REMARK    9  A    between atoms: C_35  and  C_36
REMARK   10  A    between atoms: C_36  and  N_37
REMARK                            x       y       z     vdW  Elec       q    Type
REMARK                         _______ _______ _______ _____ _____    ______ ____
ROOT
ATOM      1  N   UNL     1      21.814 -41.539   8.674  0.00  0.00    +0.000 N 
ATOM      2  C   UNL     1      22.971 -41.038   9.310  0.00  0.00    +0.000 C 
ATOM      3  O   UNL     1      22.946 -40.091  10.165  0.00  0.00    +0.000 OA
ENDROOT
BRANCH   1   4
ATOM      4  C   UNL     1      21.715 -42.638   7.771  0.00  0.00    +0.000 C 
ATOM      5  C   UNL     1      22.007 -42.365   6.350  0.00  0.00    +0.000 A 
ATOM      6  C   UNL     1      22.477 -43.211   5.371  0.00  0.00    +0.000 A 
ATOM      7  C   UNL     1      22.890 -44.639   5.438  0.00  0.00    +0.000 C 
ATOM      8  C   UNL     1      23.906 -44.693   6.563  0.00  0.00    +0.000 C 
ATOM      9  C   UNL     1      23.323 -44.552   7.909  0.00  0.00    +0.000 C 
ATOM     10  N   UNL     1      22.156 -43.898   8.180  0.00  0.00    +0.000 NA
ATOM     11  C   UNL     1      21.403 -44.426   9.321  0.00  0.00    +0.000 C 
ATOM     12  C   UNL     1      20.146 -45.127   8.860  0.00  0.00    +0.000 C 
ATOM     13  O   UNL     1      20.446 -46.296   8.284  0.00  0.00    +0.000 OA
ATOM     14  C   UNL     1      19.779 -46.717   7.190  0.00  0.00    +0.000 C 
ATOM     15  C   UNL     1      19.339 -45.736   6.174  0.00  0.00    +0.000 C 
ATOM     16  C   UNL     1      24.916 -43.602   6.208  0.00  0.00    +0.000 C 
ATOM     17  C   UNL     1      21.789 -45.628   5.595  0.00  0.00    +0.000 C 
ATOM     18  C   UNL     1      20.436 -45.099   5.368  0.00  0.00    +0.000 C 
ATOM     19  C   UNL     1      22.638 -42.709   4.102  0.00  0.00    +0.000 A 
ATOM     20  C   UNL     1      22.356 -41.409   3.764  0.00  0.00    +0.000 A 
ATOM     21  C   UNL     1      21.886 -40.560   4.746  0.00  0.00    +0.000 A 
ATOM     22  C   UNL     1      21.726 -41.060   6.012  0.00  0.00    +0.000 A 
BRANCH   8  23
ATOM     23  C   UNL     1      24.627 -45.979   6.424  0.00  0.00    +0.000 C 
ATOM     24  O   UNL     1      24.737 -46.751   7.401  0.00  0.00    +0.000 OA
BRANCH  23  25
ATOM     25  O   UNL     1      25.203 -46.385   5.238  0.00  0.00    +0.000 OA
ATOM     26  H   UNL     1      26.126 -46.806   5.196  0.00  0.00    +0.000 HD
ENDBRANCH  23  25
ENDBRANCH   8  23
ENDBRANCH   1   4
BRANCH   1  27
ATOM     27  S   UNL     1      20.410 -40.640   9.203  0.00  0.00    +0.000 S 
ATOM     28  H   UNL     1      20.414 -40.783  10.691  0.00  0.00    +0.000 HD
BRANCH  27  30
ATOM     29  N   UNL     1      18.236 -40.710   7.600  0.00  0.00    +0.000 N 
ATOM     30  C   UNL     1      19.019 -41.223   8.600  0.00  0.00    +0.000 A 
ATOM     31  N   UNL     1      18.333 -42.345   8.956  0.00  0.00    +0.000 NA
ATOM     32  N   UNL     1      17.245 -42.491   8.240  0.00  0.00    +0.000 NA
ATOM     33  C   UNL     1      17.168 -41.475   7.386  0.00  0.00    +0.000 A 
ATOM     34  N   UNL     1      16.119 -41.294   6.444  0.00  0.00    +0.000 N 
ATOM     35  H   UNL     1      18.448 -39.832   7.075  0.00  0.00    +0.000 HD
ATOM     36  H   UNL     1      15.109 -41.300   6.728  0.00  0.00    +0.000 HD
ATOM     37  H   UNL     1      16.321 -41.149   5.433  0.00  0.00    +0.000 HD
ENDBRANCH  27  30
BRANCH  27  38
ATOM     38  C   UNL     1      20.638 -39.003   8.801  0.00  0.00    +0.000 C 
BRANCH  38  39
ATOM     39  C   UNL     1      19.893 -38.128   9.814  0.00  0.00    +0.000 C 
BRANCH  39  40
ATOM     40  N   UNL     1      18.541 -37.861   9.358  0.00  0.00    +0.000 NA
ATOM     41  C   UNL     1      18.336 -36.427   9.484  0.00  0.00    +0.000 C 
ATOM     42  C   UNL     1      17.952 -36.068  10.914  0.00  0.00    +0.000 C 
ATOM     43  C   UNL     1      16.523 -36.501  11.144  0.00  0.00    +0.000 C 
ATOM     44  C   UNL     1      16.278 -37.711  10.240  0.00  0.00    +0.000 C 
ATOM     45  C   UNL     1      17.565 -38.512  10.229  0.00  0.00    +0.000 C 
ENDBRANCH  39  40
ENDBRANCH  38  39
ENDBRANCH  27  38
ENDBRANCH   1  27
BRANCH   2  46
ATOM     46  C   UNL     1      24.354 -41.560   9.050  0.00  0.00    +0.000 C 
ATOM     47 CL   UNL     1      24.853 -42.726  10.324  0.00  0.00    +0.000 Cl
ENDBRANCH   2  46
TORSDOF 9
ENDMDL
