MODEL 1
REMARK VINA RESULT:    -8.361      0.000      0.000
REMARK INTER + INTRA:         -15.778
REMARK INTER:                 -13.248
REMARK INTRA:                  -2.530
REMARK UNBOUND:                -2.530
REMARK  Name = 
REMARK  14 active torsions:
REMARK  status: ('A' for Active; 'I' for Inactive)
REMARK    1  A    between atoms: C_1  and  C_8
REMARK    2  A    between atoms: C_1  and  C_13
REMARK    3  A    between atoms: C_3  and  C_5
REMARK    4  A    between atoms: N_10  and  C_11
REMARK    5  A    between atoms: N_10  and  C_12
REMARK    6  A    between atoms: C_13  and  C_14
REMARK    7  A    between atoms: C_14  and  C_15
REMARK    8  A    between atoms: C_15  and  C_16
REMARK    9  A    between atoms: C_22  and  N_23
REMARK   10  A    between atoms: C_24  and  C_25
REMARK   11  A    between atoms: C_25  and  C_26
REMARK   12  A    between atoms: C_26  and  C_27
REMARK   13  A    between atoms: C_29  and  O_30
REMARK   14  A    between atoms: O_30  and  C_31
REMARK                            x       y       z     vdW  Elec       q    Type
REMARK                         _______ _______ _______ _____ _____    ______ ____
ROOT
ATOM      1  C   UNL     1      18.075 -41.152   8.563  0.00  0.00    +0.000 A 
ATOM      2  N   UNL     1      16.806 -41.661   8.752  0.00  0.00    +0.000 NA
ATOM      3  C   UNL     1      15.771 -41.067   8.153  0.00  0.00    +0.000 A 
ATOM      4 BR   UNL     1      13.973 -41.725   8.375  0.00  0.00    +0.000 Br
ATOM      5  C   UNL     1      15.938 -39.961   7.352  0.00  0.00    +0.000 A 
ATOM      6  C   UNL     1      17.196 -39.443   7.155  0.00  0.00    +0.000 A 
ATOM      7  C   UNL     1      18.295 -40.063   7.785  0.00  0.00    +0.000 A 
ENDROOT
BRANCH   7   8
ATOM      8  N   UNL     1      19.546 -39.423   7.640  0.00  0.00    +0.000 N 
ATOM      9  C   UNL     1      19.889 -38.200   8.356  0.00  0.00    +0.000 C 
ATOM     10  C   UNL     1      21.375 -37.992   8.195  0.00  0.00    +0.000 C 
ATOM     11  C   UNL     1      21.626 -37.766   6.707  0.00  0.00    +0.000 C 
ATOM     12  C   UNL     1      21.140 -38.925   5.891  0.00  0.00    +0.000 C 
ATOM     13  C   UNL     1      20.530 -39.979   6.754  0.00  0.00    +0.000 C 
BRANCH   9  14
ATOM     14  C   UNL     1      19.393 -38.110   9.743  0.00  0.00    +0.000 C 
BRANCH  14  15
ATOM     15  C   UNL     1      18.810 -36.718  10.001  0.00  0.00    +0.000 C 
BRANCH  15  16
ATOM     16  C   UNL     1      17.406 -36.953  10.498  0.00  0.00    +0.000 A 
ATOM     17  C   UNL     1      16.631 -35.897  10.894  0.00  0.00    +0.000 A 
ATOM     18  C   UNL     1      15.356 -36.081  11.345  0.00  0.00    +0.000 A 
ATOM     19  C   UNL     1      14.858 -37.358  11.397  0.00  0.00    +0.000 A 
ATOM     20  C   UNL     1      15.644 -38.440  10.996  0.00  0.00    +0.000 A 
ATOM     21  C   UNL     1      16.922 -38.241  10.545  0.00  0.00    +0.000 A 
BRANCH  18  22
ATOM     22  O   UNL     1      14.592 -34.979  11.741  0.00  0.00    +0.000 OA
ATOM     23  C   UNL     1      14.766 -33.718  11.127  0.00  0.00    +0.000 C 
ENDBRANCH  18  22
ENDBRANCH  15  16
ENDBRANCH  14  15
ENDBRANCH   9  14
ENDBRANCH   7   8
BRANCH   1  24
ATOM     24  C   UNL     1      19.229 -41.902   9.135  0.00  0.00    +0.000 C 
BRANCH  24  25
ATOM     25  C   UNL     1      19.554 -43.155   8.301  0.00  0.00    +0.000 C 
BRANCH  25  26
ATOM     26  C   UNL     1      21.035 -43.427   8.418  0.00  0.00    +0.000 C 
BRANCH  26  27
ATOM     27  C   UNL     1      21.585 -44.225   7.247  0.00  0.00    +0.000 C 
ATOM     28  N   UNL     1      22.988 -44.208   7.055  0.00  0.00    +0.000 N 
ATOM     29  C   UNL     1      24.153 -44.959   7.182  0.00  0.00    +0.000 C 
ATOM     30  O   UNL     1      24.136 -46.137   7.597  0.00  0.00    +0.000 OA
ATOM     31  C   UNL     1      25.514 -44.422   6.836  0.00  0.00    +0.000 C 
ATOM     32  C   UNL     1      22.832 -42.839   6.499  0.00  0.00    +0.000 C 
ATOM     33  C   UNL     1      21.489 -43.300   6.018  0.00  0.00    +0.000 C 
BRANCH  27  34
ATOM     34  C   UNL     1      20.837 -45.476   7.108  0.00  0.00    +0.000 C 
ATOM     35  O   UNL     1      20.232 -45.598   5.963  0.00  0.00    +0.000 OA
ATOM     36  N   UNL     1      20.680 -46.528   7.995  0.00  0.00    +0.000 N 
ATOM     37  C   UNL     1      19.898 -47.717   7.583  0.00  0.00    +0.000 C 
ATOM     38  C   UNL     1      21.186 -46.593   9.336  0.00  0.00    +0.000 C 
ENDBRANCH  27  34
ENDBRANCH  26  27
ENDBRANCH  25  26
ENDBRANCH  24  25
ENDBRANCH   1  24
TORSDOF 10
ENDMDL
