MODEL 1
REMARK VINA RESULT:    -8.631      0.000      0.000
REMARK INTER + INTRA:         -17.123
REMARK INTER:                 -14.937
REMARK INTRA:                  -2.186
REMARK UNBOUND:                -2.186
REMARK  Name = 
REMARK  15 active torsions:
REMARK  status: ('A' for Active; 'I' for Inactive)
REMARK    1  A    between atoms: S_1  and  N_4
REMARK    2  A    between atoms: S_1  and  C_13
REMARK    3  A    between atoms: N_4  and  C_5
REMARK    4  A    between atoms: C_5  and  C_6
REMARK    5  A    between atoms: N_8  and  C_9
REMARK    6  A    between atoms: C_9  and  C_10
REMARK    7  A    between atoms: C_10  and  O_12
REMARK    8  A    between atoms: C_18  and  N_19
REMARK    9  A    between atoms: N_19  and  C_20
REMARK   10  A    between atoms: N_19  and  C_28
REMARK   11  A    between atoms: C_20  and  C_21
REMARK   12  A    between atoms: C_20  and  C_27
REMARK   13  A    between atoms: C_28  and  C_29
REMARK   14  A    between atoms: C_32  and  O_35
REMARK   15  A    between atoms: O_35  and  C_36
REMARK                            x       y       z     vdW  Elec       q    Type
REMARK                         _______ _______ _______ _____ _____    ______ ____
ROOT
ATOM      1  C   UNL     1      21.402 -42.893   5.194  0.00  0.00    +0.000 A 
ATOM      2  C   UNL     1      20.928 -44.208   4.993  0.00  0.00    +0.000 A 
ATOM      3  C   UNL     1      20.293 -44.924   5.986  0.00  0.00    +0.000 A 
ATOM      4  C   UNL     1      20.096 -44.390   7.220  0.00  0.00    +0.000 A 
ATOM      5  C   UNL     1      20.537 -43.130   7.461  0.00  0.00    +0.000 A 
ATOM      6  C   UNL     1      21.188 -42.394   6.438  0.00  0.00    +0.000 A 
ENDROOT
BRANCH   1   7
ATOM      7  S   UNL     1      22.242 -42.112   3.928  0.00  0.00    +0.000 S 
ATOM      8  O   UNL     1      23.730 -41.976   4.143  0.00  0.00    +0.000 OA
ATOM      9  O   UNL     1      21.671 -40.781   3.496  0.00  0.00    +0.000 OA
BRANCH   7  10
ATOM     10  N   UNL     1      22.124 -43.052   2.448  0.00  0.00    +0.000 NA
ATOM     11  H   UNL     1      22.040 -44.066   2.679  0.00  0.00    +0.000 HD
BRANCH  10  12
ATOM     12  C   UNL     1      20.976 -42.687   1.668  0.00  0.00    +0.000 C 
BRANCH  12  13
ATOM     13  C   UNL     1      21.138 -43.272   0.308  0.00  0.00    +0.000 C 
ATOM     14  O   UNL     1      20.290 -43.069  -0.607  0.00  0.00    +0.000 OA
ATOM     15  N   UNL     1      22.254 -44.080  -0.010  0.00  0.00    +0.000 N 
ATOM     16  H   UNL     1      23.004 -44.301   0.679  0.00  0.00    +0.000 HD
BRANCH  15  17
ATOM     17  C   UNL     1      22.409 -44.652  -1.345  0.00  0.00    +0.000 C 
BRANCH  17  18
ATOM     18  C   UNL     1      23.576 -44.100  -2.038  0.00  0.00    +0.000 C 
ATOM     19  O   UNL     1      23.827 -44.350  -3.251  0.00  0.00    +0.000 OA
BRANCH  18  20
ATOM     20  O   UNL     1      24.452 -43.273  -1.368  0.00  0.00    +0.000 OA
ATOM     21  H   UNL     1      24.201 -42.377  -0.985  0.00  0.00    +0.000 HD
ENDBRANCH  18  20
ENDBRANCH  17  18
ENDBRANCH  15  17
ENDBRANCH  12  13
ENDBRANCH  10  12
ENDBRANCH   7  10
ENDBRANCH   1   7
BRANCH   6  22
ATOM     22  N   UNL     1      21.611 -41.056   6.790  0.00  0.00    +0.000 N 
BRANCH  22  23
ATOM     23  C   UNL     1      20.790 -39.909   6.602  0.00  0.00    +0.000 C 
ATOM     24  C   UNL     1      21.523 -38.667   6.142  0.00  0.00    +0.000 C 
BRANCH  23  25
ATOM     25  C   UNL     1      19.923 -39.502   7.711  0.00  0.00    +0.000 A 
ATOM     26  C   UNL     1      20.206 -38.487   8.599  0.00  0.00    +0.000 A 
ATOM     27  C   UNL     1      19.366 -38.136   9.649  0.00  0.00    +0.000 A 
ATOM     28  C   UNL     1      18.195 -38.801   9.847  0.00  0.00    +0.000 A 
ATOM     29  C   UNL     1      17.871 -39.813   8.994  0.00  0.00    +0.000 A 
ATOM     30  C   UNL     1      18.704 -40.148   7.966  0.00  0.00    +0.000 A 
ENDBRANCH  23  25
ENDBRANCH  22  23
BRANCH  22  31
ATOM     31  C   UNL     1      22.954 -41.027   7.367  0.00  0.00    +0.000 C 
BRANCH  31  32
ATOM     32  C   UNL     1      23.118 -41.727   8.625  0.00  0.00    +0.000 A 
ATOM     33  C   UNL     1      23.981 -42.831   8.666  0.00  0.00    +0.000 A 
ATOM     34  C   UNL     1      24.215 -43.557   9.801  0.00  0.00    +0.000 A 
ATOM     35  C   UNL     1      23.586 -43.206  10.961  0.00  0.00    +0.000 A 
ATOM     36  C   UNL     1      22.730 -42.135  10.981  0.00  0.00    +0.000 A 
ATOM     37  C   UNL     1      22.513 -41.412   9.802  0.00  0.00    +0.000 A 
BRANCH  35  38
ATOM     38  O   UNL     1      23.820 -43.941  12.112  0.00  0.00    +0.000 OA
ATOM     39  C   UNL     1      24.542 -45.157  12.064  0.00  0.00    +0.000 C 
ENDBRANCH  35  38
ENDBRANCH  31  32
ENDBRANCH  22  31
ENDBRANCH   6  22
TORSDOF 13
ENDMDL
