MODEL 1
REMARK VINA RESULT:    -7.696      0.000      0.000
REMARK INTER + INTRA:         -13.811
REMARK INTER:                 -11.746
REMARK INTRA:                  -2.065
REMARK UNBOUND:                -2.065
REMARK  Name = 
REMARK  10 active torsions:
REMARK  status: ('A' for Active; 'I' for Inactive)
REMARK    1  A    between atoms: C_1  and  C_2
REMARK    2  A    between atoms: C_1  and  N_9
REMARK    3  A    between atoms: C_10  and  C_12
REMARK    4  A    between atoms: C_17  and  C_18
REMARK    5  A    between atoms: C_18  and  C_35
REMARK    6  A    between atoms: N_20  and  C_28
REMARK    7  A    between atoms: C_23  and  N_24
REMARK    8  A    between atoms: N_24  and  C_25
REMARK    9  A    between atoms: C_25  and  C_26
REMARK   10  A    between atoms: C_28  and  C_29
REMARK                            x       y       z     vdW  Elec       q    Type
REMARK                         _______ _______ _______ _____ _____    ______ ____
ROOT
ATOM      1  C   UNL     1      21.229 -43.150   8.368  0.00  0.00    +0.000 C 
ATOM      2  C   UNL     1      19.814 -42.891   8.977  0.00  0.00    +0.000 C 
ATOM      3  N   UNL     1      19.054 -41.942   8.212  0.00  0.00    +0.000 NA
ATOM      4  C   UNL     1      18.317 -42.795   7.241  0.00  0.00    +0.000 C 
ATOM      5  C   UNL     1      19.345 -43.863   6.828  0.00  0.00    +0.000 C 
ATOM      6  C   UNL     1      20.752 -43.330   6.916  0.00  0.00    +0.000 C 
ENDROOT
BRANCH   1  12
ATOM      7  C   UNL     1      23.157 -44.778   9.161  0.00  0.00    +0.000 C 
ATOM      8  C   UNL     1      23.139 -45.762  10.406  0.00  0.00    +0.000 C 
ATOM      9  C   UNL     1      22.362 -46.981  10.220  0.00  0.00    +0.000 C 
ATOM     10  C   UNL     1      21.393 -46.856   9.111  0.00  0.00    +0.000 C 
ATOM     11  C   UNL     1      20.753 -45.489   9.133  0.00  0.00    +0.000 C 
ATOM     12  C   UNL     1      21.710 -44.318   9.097  0.00  0.00    +0.000 C 
BRANCH   7  13
ATOM     13  C   UNL     1      24.121 -43.741   9.648  0.00  0.00    +0.000 C 
ATOM     14  C   UNL     1      24.175 -43.426  11.093  0.00  0.00    +0.000 C 
ATOM     15  O   UNL     1      23.225 -42.837  11.679  0.00  0.00    +0.000 OA
ATOM     16  C   UNL     1      25.313 -43.748  11.950  0.00  0.00    +0.000 C 
ATOM     17  C   UNL     1      26.605 -43.132  11.365  0.00  0.00    +0.000 C 
ATOM     18  C   UNL     1      26.417 -42.959   9.878  0.00  0.00    +0.000 C 
ATOM     19  C   UNL     1      25.570 -44.154   9.382  0.00  0.00    +0.000 C 
ENDBRANCH   7  13
BRANCH   7  20
ATOM     20  N   UNL     1      23.561 -45.600   8.090  0.00  0.00    +0.000 N 
ATOM     21  C   UNL     1      24.130 -45.304   6.861  0.00  0.00    +0.000 C 
ATOM     22  O   UNL     1      24.369 -44.133   6.595  0.00  0.00    +0.000 OA
ATOM     23  C   UNL     1      24.463 -46.352   5.836  0.00  0.00    +0.000 C 
ATOM     24  H   UNL     1      23.404 -46.660   8.248  0.00  0.00    +0.000 HD
ENDBRANCH   7  20
ENDBRANCH   1  12
BRANCH   1  25
ATOM     25  C   UNL     1      21.930 -41.873   8.356  0.00  0.00    +0.000 A 
ATOM     26  C   UNL     1      22.530 -41.342   7.227  0.00  0.00    +0.000 A 
ATOM     27  C   UNL     1      23.130 -40.101   7.155  0.00  0.00    +0.000 A 
ATOM     28  C   UNL     1      23.148 -39.322   8.269  0.00  0.00    +0.000 A 
ATOM     29  C   UNL     1      22.575 -39.788   9.414  0.00  0.00    +0.000 A 
ATOM     30  C   UNL     1      21.999 -41.015   9.427  0.00  0.00    +0.000 A 
ENDBRANCH   1  25
BRANCH   6  31
ATOM     31  N   UNL     1      21.672 -43.758   5.957  0.00  0.00    +0.000 NA
ATOM     32  H   UNL     1      22.455 -43.035   5.742  0.00  0.00    +0.000 HD
BRANCH  31  33
ATOM     33  C   UNL     1      21.155 -43.831   4.576  0.00  0.00    +0.000 C 
BRANCH  33  34
ATOM     34  C   UNL     1      21.702 -42.541   3.981  0.00  0.00    +0.000 C 
ATOM     35  C   UNL     1      22.110 -41.545   3.528  0.00  0.00    +0.000 C 
ENDBRANCH  33  34
ENDBRANCH  31  33
ENDBRANCH   6  31
BRANCH   3  36
ATOM     36  C   UNL     1      17.979 -41.508   9.145  0.00  0.00    +0.000 C 
BRANCH  36  37
ATOM     37  C   UNL     1      18.041 -40.085   9.484  0.00  0.00    +0.000 A 
ATOM     38  C   UNL     1      16.954 -39.484  10.168  0.00  0.00    +0.000 A 
ATOM     39  C   UNL     1      16.986 -38.174  10.537  0.00  0.00    +0.000 A 
ATOM     40  C   UNL     1      18.086 -37.361  10.262  0.00  0.00    +0.000 A 
ATOM     41  C   UNL     1      19.144 -37.909   9.603  0.00  0.00    +0.000 A 
ATOM     42  C   UNL     1      19.097 -39.250   9.232  0.00  0.00    +0.000 A 
ENDBRANCH  36  37
ENDBRANCH   3  36
TORSDOF 9
ENDMDL
