MODEL 1
REMARK VINA RESULT:    -8.098      0.000      0.000
REMARK INTER + INTRA:         -19.829
REMARK INTER:                 -15.672
REMARK INTRA:                  -4.158
REMARK UNBOUND:                -4.158
REMARK  Name = 
REMARK  18 active torsions:
REMARK  status: ('A' for Active; 'I' for Inactive)
REMARK    1  A    between atoms: S_1  and  C_4
REMARK    2  A    between atoms: S_1  and  N_22
REMARK    3  A    between atoms: C_6  and  C_7
REMARK    4  A    between atoms: N_9  and  C_10
REMARK    5  A    between atoms: C_13  and  C_14
REMARK    6  A    between atoms: C_14  and  O_16
REMARK    7  A    between atoms: N_22  and  C_23
REMARK    8  A    between atoms: N_22  and  C_25
REMARK    9  A    between atoms: C_23  and  C_24
REMARK   10  A    between atoms: C_25  and  C_26
REMARK   11  A    between atoms: C_26  and  C_27
REMARK   12  A    between atoms: C_27  and  C_28
REMARK   13  A    between atoms: C_27  and  C_34
REMARK   14  A    between atoms: C_27  and  N_40
REMARK   15  A    between atoms: N_40  and  C_41
REMARK   16  A    between atoms: C_41  and  C_42
REMARK   17  A    between atoms: C_42  and  C_43
REMARK   18  A    between atoms: C_43  and  O_44
REMARK                            x       y       z     vdW  Elec       q    Type
REMARK                         _______ _______ _______ _____ _____    ______ ____
ROOT
ATOM      1  N   UNL     1      22.561 -44.258   8.055  0.00  0.00    +0.000 NA
ENDROOT
BRANCH   1   2
ATOM      2  S   UNL     1      21.935 -43.701   6.602  0.00  0.00    +0.000 S 
ATOM      3  O   UNL     1      20.585 -44.318   6.303  0.00  0.00    +0.000 OA
ATOM      4  O   UNL     1      22.830 -44.183   5.465  0.00  0.00    +0.000 OA
BRANCH   2   5
ATOM      5  C   UNL     1      21.830 -41.962   6.493  0.00  0.00    +0.000 A 
ATOM      6  C   UNL     1      20.843 -41.236   7.126  0.00  0.00    +0.000 A 
ATOM      7  C   UNL     1      20.770 -39.847   7.057  0.00  0.00    +0.000 A 
ATOM      8  C   UNL     1      21.724 -39.172   6.329  0.00  0.00    +0.000 A 
ATOM      9  C   UNL     1      22.716 -39.859   5.691  0.00  0.00    +0.000 A 
ATOM     10  C   UNL     1      22.762 -41.252   5.776  0.00  0.00    +0.000 A 
BRANCH   7  11
ATOM     11  C   UNL     1      19.702 -39.102   7.682  0.00  0.00    +0.000 C 
ATOM     12  O   UNL     1      18.890 -38.527   6.929  0.00  0.00    +0.000 OA
ATOM     13  N   UNL     1      19.572 -39.018   9.077  0.00  0.00    +0.000 N 
ATOM     14  H   UNL     1      20.277 -39.535   9.688  0.00  0.00    +0.000 HD
BRANCH  13  15
ATOM     15  C   UNL     1      18.555 -38.282   9.767  0.00  0.00    +0.000 A 
ATOM     16  C   UNL     1      18.725 -36.998  10.224  0.00  0.00    +0.000 A 
ATOM     17  C   UNL     1      17.695 -36.311  10.880  0.00  0.00    +0.000 A 
ATOM     18  C   UNL     1      16.478 -36.893  11.091  0.00  0.00    +0.000 A 
ATOM     19  C   UNL     1      16.297 -38.178  10.638  0.00  0.00    +0.000 A 
ATOM     20  C   UNL     1      17.321 -38.859   9.987  0.00  0.00    +0.000 A 
BRANCH  18  21
ATOM     21  C   UNL     1      15.446 -36.140  11.783  0.00  0.00    +0.000 C 
ATOM     22  O   UNL     1      15.012 -36.507  12.899  0.00  0.00    +0.000 OA
BRANCH  21  23
ATOM     23  O   UNL     1      14.867 -34.972  11.273  0.00  0.00    +0.000 OA
ATOM     24  H   UNL     1      14.532 -34.910  10.322  0.00  0.00    +0.000 HD
ENDBRANCH  21  23
ENDBRANCH  18  21
ENDBRANCH  13  15
ENDBRANCH   7  11
ENDBRANCH   2   5
ENDBRANCH   1   2
BRANCH   1  25
ATOM     25  C   UNL     1      21.673 -44.659   9.071  0.00  0.00    +0.000 C 
ATOM     26  C   UNL     1      21.999 -46.118   9.422  0.00  0.00    +0.000 C 
ENDBRANCH   1  25
BRANCH   1  27
ATOM     27  C   UNL     1      23.860 -44.871   8.047  0.00  0.00    +0.000 C 
BRANCH  27  28
ATOM     28  C   UNL     1      24.965 -43.917   8.317  0.00  0.00    +0.000 C 
BRANCH  28  29
ATOM     29  C   UNL     1      25.200 -43.437   9.690  0.00  0.00    +0.000 C 
BRANCH  29  30
ATOM     30  C   UNL     1      26.707 -43.178   9.762  0.00  0.00    +0.000 A 
ATOM     31  C   UNL     1      27.605 -43.647   8.848  0.00  0.00    +0.000 A 
ATOM     32  C   UNL     1      28.955 -43.362   8.973  0.00  0.00    +0.000 A 
ATOM     33  C   UNL     1      29.429 -42.599  10.017  0.00  0.00    +0.000 A 
ATOM     34  C   UNL     1      28.528 -42.122  10.940  0.00  0.00    +0.000 A 
ATOM     35  C   UNL     1      27.163 -42.422  10.797  0.00  0.00    +0.000 A 
ENDBRANCH  29  30
BRANCH  29  36
ATOM     36  C   UNL     1      25.019 -44.454  10.772  0.00  0.00    +0.000 A 
ATOM     37  N   UNL     1      24.194 -44.153  11.782  0.00  0.00    +0.000 NA
ATOM     38  C   UNL     1      23.979 -45.014  12.809  0.00  0.00    +0.000 A 
ATOM     39  C   UNL     1      24.606 -46.225  12.841  0.00  0.00    +0.000 A 
ATOM     40  C   UNL     1      25.466 -46.549  11.799  0.00  0.00    +0.000 A 
ATOM     41  C   UNL     1      25.655 -45.653  10.782  0.00  0.00    +0.000 A 
ENDBRANCH  29  36
BRANCH  29  42
ATOM     42  N   UNL     1      24.627 -42.204  10.090  0.00  0.00    +0.000 NA
ATOM     43  H   UNL     1      25.336 -41.675  10.719  0.00  0.00    +0.000 HD
BRANCH  42  44
ATOM     44  C   UNL     1      24.208 -41.262   9.127  0.00  0.00    +0.000 C 
BRANCH  44  45
ATOM     45  C   UNL     1      23.080 -40.439   9.808  0.00  0.00    +0.000 C 
BRANCH  45  46
ATOM     46  C   UNL     1      22.112 -41.376  10.490  0.00  0.00    +0.000 C 
BRANCH  46  47
ATOM     47  O   UNL     1      22.479 -41.488  11.841  0.00  0.00    +0.000 OA
ATOM     48  H   UNL     1      21.737 -41.779  12.411  0.00  0.00    +0.000 HD
ENDBRANCH  46  47
ENDBRANCH  45  46
ENDBRANCH  44  45
ENDBRANCH  42  44
ENDBRANCH  29  42
ENDBRANCH  28  29
ENDBRANCH  27  28
ENDBRANCH   1  27
TORSDOF 17
ENDMDL
