MODEL 1
REMARK VINA RESULT:    -7.960      0.000      0.000
REMARK INTER + INTRA:         -10.618
REMARK INTER:                  -9.589
REMARK INTRA:                  -1.029
REMARK UNBOUND:                -1.029
REMARK  Name = 
REMARK  5 active torsions:
REMARK  status: ('A' for Active; 'I' for Inactive)
REMARK    1  A    between atoms: S_1  and  N_4
REMARK    2  A    between atoms: S_1  and  C_35
REMARK    3  A    between atoms: N_7  and  C_8
REMARK    4  A    between atoms: C_11  and  N_12
REMARK    5  A    between atoms: C_27  and  C_28
REMARK                            x       y       z     vdW  Elec       q    Type
REMARK                         _______ _______ _______ _____ _____    ______ ____
ROOT
ATOM      1  N   UNL     1      21.813 -45.789   5.701  0.00  0.00    +0.000 NA
ATOM      2  C   UNL     1      23.120 -46.121   5.141  0.00  0.00    +0.000 C 
ATOM      3  C   UNL     1      24.291 -45.878   5.989  0.00  0.00    +0.000 C 
ATOM      4  N   UNL     1      24.796 -44.616   6.351  0.00  0.00    +0.000 N 
ATOM      5  C   UNL     1      24.293 -43.218   6.352  0.00  0.00    +0.000 C 
ATOM      6  C   UNL     1      22.853 -43.350   5.829  0.00  0.00    +0.000 C 
ATOM      7  S   UNL     1      21.993 -44.495   6.759  0.00  0.00    +0.000 S 
ATOM      8  C   UNL     1      20.847 -43.890   7.815  0.00  0.00    +0.000 C 
ATOM      9  N   UNL     1      19.583 -43.873   7.632  0.00  0.00    +0.000 NA
ATOM     10  N   UNL     1      18.702 -42.862   8.243  0.00  0.00    +0.000 NA
ATOM     11  C   UNL     1      18.981 -41.560   8.280  0.00  0.00    +0.000 C 
ATOM     12  N   UNL     1      17.958 -40.617   8.440  0.00  0.00    +0.000 N 
ATOM     13  S   UNL     1      21.399 -43.106   9.444  0.00  0.00    +0.000 S 
ATOM     14  C   UNL     1      21.563 -41.402   8.841  0.00  0.00    +0.000 C 
ATOM     15  C   UNL     1      20.317 -40.999   8.095  0.00  0.00    +0.000 C 
ATOM     16  C   UNL     1      20.311 -39.961   7.232  0.00  0.00    +0.000 C 
ATOM     17  C   UNL     1      21.481 -39.215   6.801  0.00  0.00    +0.000 C 
ATOM     18  C   UNL     1      22.257 -39.757   5.796  0.00  0.00    +0.000 C 
ATOM     19  C   UNL     1      22.051 -40.991   5.086  0.00  0.00    +0.000 C 
ATOM     20  C   UNL     1      22.280 -42.251   5.138  0.00  0.00    +0.000 C 
ATOM     21  H   UNL     1      23.186 -45.273   7.887  0.00  0.00    +0.000 HD
ATOM     22  H   UNL     1      17.709 -40.309   9.401  0.00  0.00    +0.000 HD
ATOM     23  H   UNL     1      17.429 -40.204   7.647  0.00  0.00    +0.000 HD
ENDROOT
BRANCH   4  24
ATOM     24  C   UNL     1      26.150 -44.606   6.871  0.00  0.00    +0.000 A 
ATOM     25  C   UNL     1      27.199 -45.001   6.112  0.00  0.00    +0.000 A 
ATOM     26  C   UNL     1      28.504 -44.983   6.622  0.00  0.00    +0.000 A 
ATOM     27  C   UNL     1      28.715 -44.559   7.910  0.00  0.00    +0.000 A 
ATOM     28  C   UNL     1      27.663 -44.159   8.684  0.00  0.00    +0.000 A 
ATOM     29  C   UNL     1      26.363 -44.182   8.156  0.00  0.00    +0.000 A 
BRANCH  27  30
ATOM     30  N   UNL     1      30.060 -44.556   8.393  0.00  0.00    +0.000 N 
ATOM     31  H   UNL     1      30.837 -44.327   7.758  0.00  0.00    +0.000 HD
ATOM     32  H   UNL     1      30.212 -44.791   9.397  0.00  0.00    +0.000 HD
ENDBRANCH  27  30
ENDBRANCH   4  24
BRANCH   1  33
ATOM     33  S   UNL     1      20.999 -47.125   6.366  0.00  0.00    +0.000 S 
ATOM     34  O   UNL     1      19.523 -46.883   6.222  0.00  0.00    +0.000 OA
ATOM     35  O   UNL     1      21.380 -47.241   7.821  0.00  0.00    +0.000 OA
ATOM     36  C   UNL     1      21.476 -48.585   5.471  0.00  0.00    +0.000 C 
ENDBRANCH   1  33
BRANCH  17  37
ATOM     37  C   UNL     1      21.741 -37.863   7.325  0.00  0.00    +0.000 C 
ATOM     38  F   UNL     1      21.970 -36.879   6.426  0.00  0.00    +0.000 F 
ATOM     39  F   UNL     1      22.735 -37.901   8.316  0.00  0.00    +0.000 F 
ATOM     40  F   UNL     1      20.594 -37.466   8.037  0.00  0.00    +0.000 F 
ENDBRANCH  17  37
TORSDOF 4
ENDMDL
