MODEL 1
REMARK VINA RESULT:    -9.825      0.000      0.000
REMARK INTER + INTRA:         -16.325
REMARK INTER:                 -14.707
REMARK INTRA:                  -1.618
REMARK UNBOUND:                -1.618
REMARK  Name = 
REMARK  9 active torsions:
REMARK  status: ('A' for Active; 'I' for Inactive)
REMARK    1  A    between atoms: N_3  and  C_12
REMARK    2  A    between atoms: C_12  and  C_13
REMARK    3  A    between atoms: C_13  and  C_14
REMARK    4  A    between atoms: C_14  and  O_16
REMARK    5  A    between atoms: N_22  and  C_23
REMARK    6  A    between atoms: C_23  and  C_24
REMARK    7  A    between atoms: C_25  and  N_34
REMARK    8  A    between atoms: N_34  and  C_35
REMARK    9  A    between atoms: C_35  and  C_36
REMARK                            x       y       z     vdW  Elec       q    Type
REMARK                         _______ _______ _______ _____ _____    ______ ____
ROOT
ATOM      1  C   UNL     1      17.978 -39.918   9.380  0.00  0.00    +0.000 A 
ATOM      2  C   UNL     1      16.620 -39.870   9.121  0.00  0.00    +0.000 A 
ATOM      3  N   UNL     1      16.138 -38.629   9.419  0.00  0.00    +0.000 N 
ATOM      4  C   UNL     1      17.174 -37.899   9.861  0.00  0.00    +0.000 A 
ATOM      5  N   UNL     1      18.265 -38.686   9.830  0.00  0.00    +0.000 NA
ATOM      6  N   UNL     1      17.087 -36.536  10.265  0.00  0.00    +0.000 N 
ATOM      7  C   UNL     1      17.287 -35.544   9.207  0.00  0.00    +0.000 C 
ATOM      8  C   UNL     1      17.137 -34.166   9.761  0.00  0.00    +0.000 C 
ATOM      9  C   UNL     1      15.881 -34.097  10.581  0.00  0.00    +0.000 C 
ATOM     10  C   UNL     1      15.883 -35.016  11.772  0.00  0.00    +0.000 C 
ATOM     11  C   UNL     1      16.828 -36.176  11.621  0.00  0.00    +0.000 C 
ATOM     12  C   UNL     1      16.007 -41.004   8.647  0.00  0.00    +0.000 A 
ATOM     13  O   UNL     1      14.764 -40.961   8.408  0.00  0.00    +0.000 OA
ATOM     14  N   UNL     1      16.730 -42.108   8.453  0.00  0.00    +0.000 N 
ATOM     15  C   UNL     1      18.050 -42.165   8.701  0.00  0.00    +0.000 A 
ATOM     16  O   UNL     1      18.674 -43.271   8.493  0.00  0.00    +0.000 OA
ATOM     17  N   UNL     1      18.657 -41.062   9.163  0.00  0.00    +0.000 N 
ATOM     18  H   UNL     1      16.247 -42.979   8.087  0.00  0.00    +0.000 HD
ENDROOT
BRANCH   3  19
ATOM     19  C   UNL     1      14.754 -38.239   9.257  0.00  0.00    +0.000 C 
BRANCH  19  20
ATOM     20  C   UNL     1      14.042 -38.197  10.614  0.00  0.00    +0.000 C 
BRANCH  20  21
ATOM     21  C   UNL     1      12.875 -39.123  10.611  0.00  0.00    +0.000 C 
ATOM     22  O   UNL     1      12.311 -39.365  11.689  0.00  0.00    +0.000 OA
BRANCH  21  23
ATOM     23  O   UNL     1      12.417 -39.709   9.450  0.00  0.00    +0.000 OA
ATOM     24  H   UNL     1      12.290 -40.708   9.345  0.00  0.00    +0.000 HD
ENDBRANCH  21  23
ENDBRANCH  20  21
ENDBRANCH  19  20
ENDBRANCH   3  19
BRANCH  17  25
ATOM     25  C   UNL     1      20.094 -41.122   9.421  0.00  0.00    +0.000 C 
BRANCH  25  26
ATOM     26  C   UNL     1      20.955 -40.509   8.370  0.00  0.00    +0.000 C 
ATOM     27  C   UNL     1      21.864 -41.478   7.735  0.00  0.00    +0.000 C 
ATOM     28  C   UNL     1      22.811 -40.749   6.758  0.00  0.00    +0.000 C 
ATOM     29  C   UNL     1      23.534 -39.612   7.391  0.00  0.00    +0.000 C 
ATOM     30  C   UNL     1      22.516 -38.632   7.911  0.00  0.00    +0.000 C 
ATOM     31  C   UNL     1      21.698 -39.303   8.956  0.00  0.00    +0.000 C 
ATOM     32  C   UNL     1      21.636 -38.107   6.808  0.00  0.00    +0.000 C 
ATOM     33  C   UNL     1      20.928 -39.264   6.177  0.00  0.00    +0.000 C 
ATOM     34  C   UNL     1      20.076 -39.930   7.252  0.00  0.00    +0.000 C 
ATOM     35  C   UNL     1      21.955 -40.218   5.637  0.00  0.00    +0.000 C 
BRANCH  27  36
ATOM     36  N   UNL     1      22.489 -42.534   8.362  0.00  0.00    +0.000 NA
ATOM     37  H   UNL     1      21.960 -43.026   9.118  0.00  0.00    +0.000 HD
BRANCH  36  38
ATOM     38  C   UNL     1      23.401 -43.415   7.759  0.00  0.00    +0.000 C 
BRANCH  38  39
ATOM     39  C   UNL     1      24.770 -43.304   8.408  0.00  0.00    +0.000 A 
ATOM     40  N   UNL     1      25.829 -43.996   7.985  0.00  0.00    +0.000 NA
ATOM     41  C   UNL     1      27.049 -43.889   8.555  0.00  0.00    +0.000 A 
ATOM     42  C   UNL     1      27.265 -43.040   9.625  0.00  0.00    +0.000 A 
ATOM     43  C   UNL     1      26.182 -42.310  10.082  0.00  0.00    +0.000 A 
ATOM     44  C   UNL     1      24.934 -42.444   9.471  0.00  0.00    +0.000 A 
ENDBRANCH  38  39
ENDBRANCH  36  38
ENDBRANCH  27  36
ENDBRANCH  25  26
ENDBRANCH  17  25
TORSDOF 9
ENDMDL
