MODEL 1
REMARK VINA RESULT:    -8.237      0.000      0.000
REMARK INTER + INTRA:         -17.055
REMARK INTER:                 -14.497
REMARK INTRA:                  -2.558
REMARK UNBOUND:                -2.558
REMARK  Name = 
REMARK  18 active torsions:
REMARK  status: ('A' for Active; 'I' for Inactive)
REMARK    1  A    between atoms: N_1  and  C_21
REMARK    2  A    between atoms: C_5  and  S_8
REMARK    3  A    between atoms: S_8  and  C_9
REMARK    4  A    between atoms: C_11  and  N_20
REMARK    5  A    between atoms: C_12  and  C_13
REMARK    6  A    between atoms: C_13  and  O_15
REMARK    7  A    between atoms: O_15  and  C_16
REMARK    8  A    between atoms: C_16  and  C_17
REMARK    9  A    between atoms: C_26  and  C_27
REMARK   10  A    between atoms: C_27  and  O_28
REMARK   11  A    between atoms: C_27  and  C_37
REMARK   12  A    between atoms: O_28  and  C_29
REMARK   13  A    between atoms: C_32  and  O_35
REMARK   14  A    between atoms: O_35  and  C_36
REMARK   15  A    between atoms: C_37  and  N_38
REMARK   16  A    between atoms: C_37  and  C_39
REMARK   17  A    between atoms: C_39  and  C_40
REMARK   18  A    between atoms: C_39  and  C_41
REMARK                            x       y       z     vdW  Elec       q    Type
REMARK                         _______ _______ _______ _____ _____    ______ ____
ROOT
ATOM      1  C   UNL     1      21.615 -42.197   6.405  0.00  0.00    +0.000 A 
ATOM      2  C   UNL     1      21.834 -42.566   5.069  0.00  0.00    +0.000 A 
ATOM      3  C   UNL     1      22.568 -41.803   4.193  0.00  0.00    +0.000 A 
ATOM      4  C   UNL     1      23.084 -40.635   4.711  0.00  0.00    +0.000 A 
ATOM      5  C   UNL     1      22.886 -40.249   6.009  0.00  0.00    +0.000 A 
ATOM      6  C   UNL     1      22.150 -41.023   6.873  0.00  0.00    +0.000 A 
ENDROOT
BRANCH   1   7
ATOM      7  N   UNL     1      20.836 -43.126   7.155  0.00  0.00    +0.000 N 
ATOM      8  C   UNL     1      21.342 -44.377   7.608  0.00  0.00    +0.000 C 
ATOM      9  O   UNL     1      22.525 -44.848   7.518  0.00  0.00    +0.000 OA
ATOM     10  C   UNL     1      20.275 -45.177   8.259  0.00  0.00    +0.000 C 
ATOM     11  C   UNL     1      19.166 -44.168   8.445  0.00  0.00    +0.000 C 
ATOM     12  C   UNL     1      19.476 -43.025   7.554  0.00  0.00    +0.000 C 
ATOM     13  O   UNL     1      18.712 -42.110   7.188  0.00  0.00    +0.000 OA
BRANCH  11  14
ATOM     14  S   UNL     1      17.579 -44.935   7.993  0.00  0.00    +0.000 S 
BRANCH  14  15
ATOM     15  C   UNL     1      16.267 -44.039   8.838  0.00  0.00    +0.000 A 
ATOM     16  N   UNL     1      15.341 -44.695   9.583  0.00  0.00    +0.000 NA
ATOM     17  C   UNL     1      14.341 -44.081  10.223  0.00  0.00    +0.000 A 
ATOM     18  C   UNL     1      14.242 -42.709  10.128  0.00  0.00    +0.000 A 
ATOM     19  C   UNL     1      15.170 -42.021   9.377  0.00  0.00    +0.000 A 
ATOM     20  N   UNL     1      16.161 -42.704   8.752  0.00  0.00    +0.000 NA
BRANCH  17  21
ATOM     21  N   UNL     1      13.391 -44.793  10.990  0.00  0.00    +0.000 N 
ATOM     22  H   UNL     1      13.308 -45.837  10.993  0.00  0.00    +0.000 HD
ATOM     23  H   UNL     1      12.742 -44.234  11.582  0.00  0.00    +0.000 HD
ENDBRANCH  17  21
BRANCH  18  24
ATOM     24  C   UNL     1      13.150 -41.987  10.813  0.00  0.00    +0.000 C 
ATOM     25  O   UNL     1      13.029 -41.954  12.046  0.00  0.00    +0.000 OA
BRANCH  24  26
ATOM     26  O   UNL     1      12.215 -41.312  10.031  0.00  0.00    +0.000 OA
BRANCH  26  27
ATOM     27  C   UNL     1      11.318 -41.935   9.152  0.00  0.00    +0.000 C 
ATOM     28  C   UNL     1      10.442 -42.968   9.828  0.00  0.00    +0.000 C 
ENDBRANCH  26  27
ENDBRANCH  24  26
ENDBRANCH  18  24
ENDBRANCH  14  15
ENDBRANCH  11  14
ENDBRANCH   1   7
BRANCH   6  29
ATOM     29  C   UNL     1      21.901 -40.661   8.285  0.00  0.00    +0.000 C 
BRANCH  29  30
ATOM     30  O   UNL     1      21.250 -39.434   8.370  0.00  0.00    +0.000 OA
BRANCH  30  31
ATOM     31  C   UNL     1      20.054 -39.132   8.961  0.00  0.00    +0.000 A 
ATOM     32  C   UNL     1      19.028 -40.004   9.216  0.00  0.00    +0.000 A 
ATOM     33  C   UNL     1      17.864 -39.555   9.826  0.00  0.00    +0.000 A 
ATOM     34  C   UNL     1      17.712 -38.233  10.186  0.00  0.00    +0.000 A 
ATOM     35  C   UNL     1      18.728 -37.329   9.942  0.00  0.00    +0.000 A 
ATOM     36  C   UNL     1      19.871 -37.795   9.337  0.00  0.00    +0.000 A 
BRANCH  34  37
ATOM     37  O   UNL     1      16.562 -37.757  10.796  0.00  0.00    +0.000 OA
ATOM     38  C   UNL     1      16.475 -36.456  11.336  0.00  0.00    +0.000 C 
ENDBRANCH  34  37
ENDBRANCH  30  31
ENDBRANCH  29  30
BRANCH  29  39
ATOM     39  C   UNL     1      23.086 -40.751   9.200  0.00  0.00    +0.000 C 
BRANCH  39  40
ATOM     40  N   UNL     1      22.835 -39.966  10.370  0.00  0.00    +0.000 NA
ATOM     41  H   UNL     1      21.993 -40.305  10.862  0.00  0.00    +0.000 HD
ATOM     42  H   UNL     1      23.660 -39.956  11.025  0.00  0.00    +0.000 HD
ENDBRANCH  39  40
BRANCH  39  43
ATOM     43  C   UNL     1      23.708 -42.060   9.414  0.00  0.00    +0.000 C 
ATOM     44  C   UNL     1      25.182 -42.064   9.688  0.00  0.00    +0.000 C 
ATOM     45  C   UNL     1      23.051 -42.812  10.556  0.00  0.00    +0.000 C 
ENDBRANCH  39  43
ENDBRANCH  29  39
ENDBRANCH   6  29
TORSDOF 14
ENDMDL
