MODEL 1
REMARK VINA RESULT:    -9.989      0.000      0.000
REMARK INTER + INTRA:         -15.698
REMARK INTER:                 -14.077
REMARK INTRA:                  -1.621
REMARK UNBOUND:                -1.621
REMARK  Name = 
REMARK  8 active torsions:
REMARK  status: ('A' for Active; 'I' for Inactive)
REMARK    1  A    between atoms: C_1  and  C_15
REMARK    2  A    between atoms: C_3  and  C_4
REMARK    3  A    between atoms: C_6  and  C_9
REMARK    4  A    between atoms: C_15  and  O_17
REMARK    5  A    between atoms: O_17  and  C_18
REMARK    6  A    between atoms: C_18  and  N_19
REMARK    7  A    between atoms: C_22  and  C_23
REMARK    8  A    between atoms: C_36  and  C_37
REMARK                            x       y       z     vdW  Elec       q    Type
REMARK                         _______ _______ _______ _____ _____    ______ ____
ROOT
ATOM      1  N   UNL     1      19.231 -42.506   8.658  0.00  0.00    +0.000 N 
ATOM      2  C   UNL     1      20.523 -41.977   8.466  0.00  0.00    +0.000 A 
ATOM      3  N   UNL     1      21.018 -41.872   7.234  0.00  0.00    +0.000 NA
ATOM      4  C   UNL     1      22.215 -41.349   7.002  0.00  0.00    +0.000 A 
ATOM      5  C   UNL     1      22.974 -40.896   8.059  0.00  0.00    +0.000 A 
ATOM      6  C   UNL     1      22.434 -41.016   9.338  0.00  0.00    +0.000 A 
ATOM      7  N   UNL     1      21.221 -41.552   9.513  0.00  0.00    +0.000 NA
ATOM      8  C   UNL     1      18.807 -43.832   8.456  0.00  0.00    +0.000 A 
ATOM      9  N   UNL     1      17.453 -44.083   8.352  0.00  0.00    +0.000 NA
ATOM     10  C   UNL     1      16.930 -45.278   8.126  0.00  0.00    +0.000 A 
ATOM     11  C   UNL     1      17.738 -46.388   7.975  0.00  0.00    +0.000 A 
ATOM     12  C   UNL     1      19.088 -46.205   8.069  0.00  0.00    +0.000 A 
ATOM     13  C   UNL     1      19.618 -44.922   8.311  0.00  0.00    +0.000 A 
ATOM     14  C   UNL     1      21.087 -44.765   8.428  0.00  0.00    +0.000 C 
ENDROOT
BRANCH   4  15
ATOM     15  C   UNL     1      22.792 -41.232   5.627  0.00  0.00    +0.000 C 
ATOM     16  C   UNL     1      23.127 -42.616   5.124  0.00  0.00    +0.000 C 
ATOM     17  N   UNL     1      23.118 -42.365   3.678  0.00  0.00    +0.000 NA
ATOM     18  C   UNL     1      22.016 -41.476   3.425  0.00  0.00    +0.000 C 
ATOM     19  C   UNL     1      21.774 -40.668   4.678  0.00  0.00    +0.000 C 
ATOM     20  H   UNL     1      22.960 -43.289   3.191  0.00  0.00    +0.000 HD
ENDBRANCH   4  15
BRANCH   1  21
ATOM     21  C   UNL     1      18.218 -41.522   9.074  0.00  0.00    +0.000 C 
BRANCH  21  22
ATOM     22  O   UNL     1      17.674 -40.810   7.980  0.00  0.00    +0.000 OA
BRANCH  22  23
ATOM     23  C   UNL     1      17.913 -39.458   7.785  0.00  0.00    +0.000 C 
ATOM     24  O   UNL     1      18.205 -39.082   6.631  0.00  0.00    +0.000 OA
BRANCH  23  25
ATOM     25  C   UNL     1      17.845 -38.454   8.834  0.00  0.00    +0.000 A 
ATOM     26  C   UNL     1      16.650 -38.126   9.462  0.00  0.00    +0.000 A 
ATOM     27  C   UNL     1      16.558 -37.204  10.454  0.00  0.00    +0.000 A 
ATOM     28  C   UNL     1      17.723 -36.554  10.862  0.00  0.00    +0.000 A 
ATOM     29  C   UNL     1      18.918 -36.859  10.260  0.00  0.00    +0.000 A 
ATOM     30  C   UNL     1      18.991 -37.798   9.253  0.00  0.00    +0.000 A 
ATOM     31 CL   UNL     1      20.531 -38.152   8.518  0.00  0.00    +0.000 Cl
BRANCH  27  32
ATOM     32  C   UNL     1      15.285 -36.856  11.123  0.00  0.00    +0.000 A 
ATOM     33  O   UNL     1      14.127 -36.720  10.526  0.00  0.00    +0.000 OA
ATOM     34  C   UNL     1      13.193 -36.408  11.399  0.00  0.00    +0.000 A 
ATOM     35  C   UNL     1      13.792 -36.338  12.662  0.00  0.00    +0.000 A 
ATOM     36  C   UNL     1      15.142 -36.630  12.462  0.00  0.00    +0.000 A 
BRANCH  34  37
ATOM     37  C   UNL     1      11.778 -36.168  11.158  0.00  0.00    +0.000 C 
ATOM     38  O   UNL     1      11.093 -36.783  10.308  0.00  0.00    +0.000 OA
ENDBRANCH  34  37
ENDBRANCH  27  32
ENDBRANCH  23  25
ENDBRANCH  22  23
ENDBRANCH  21  22
ENDBRANCH   1  21
TORSDOF 7
ENDMDL
