MODEL 1
REMARK VINA RESULT:    -9.075      0.000      0.000
REMARK INTER + INTRA:         -16.327
REMARK INTER:                 -14.911
REMARK INTRA:                  -1.416
REMARK UNBOUND:                -1.416
REMARK  Name = 
REMARK  13 active torsions:
REMARK  status: ('A' for Active; 'I' for Inactive)
REMARK    1  A    between atoms: C_2  and  C_3
REMARK    2  A    between atoms: C_5  and  C_6
REMARK    3  A    between atoms: C_6  and  O_8
REMARK    4  A    between atoms: C_14  and  C_16
REMARK    5  A    between atoms: C_16  and  C_17
REMARK    6  A    between atoms: C_21  and  C_22
REMARK    7  A    between atoms: C_22  and  N_23
REMARK    8  A    between atoms: C_22  and  C_28
REMARK    9  A    between atoms: C_22  and  C_38
REMARK   10  A    between atoms: C_28  and  C_29
REMARK   11  A    between atoms: C_29  and  C_31
REMARK   12  A    between atoms: C_34  and  C_37
REMARK   13  A    between atoms: C_38  and  O_40
REMARK                            x       y       z     vdW  Elec       q    Type
REMARK                         _______ _______ _______ _____ _____    ______ ____
ROOT
ATOM      1  C   UNL     1      13.569 -42.767   8.983  0.00  0.00    +0.000 C 
ATOM      2  C   UNL     1      12.438 -43.734   9.026  0.00  0.00    +0.000 C 
ATOM      3  N   UNL     1      12.699 -44.586  10.158  0.00  0.00    +0.000 NA
ATOM      4  C   UNL     1      13.478 -43.818  11.086  0.00  0.00    +0.000 C 
ATOM      5  C   UNL     1      13.924 -42.548  10.421  0.00  0.00    +0.000 C 
ATOM      6  H   UNL     1      13.118 -45.505   9.907  0.00  0.00    +0.000 HD
ENDROOT
BRANCH   1   7
ATOM      7  C   UNL     1      14.765 -43.415   8.322  0.00  0.00    +0.000 C 
BRANCH   7  12
ATOM      8  N   UNL     1      17.087 -40.599   7.500  0.00  0.00    +0.000 NA
ATOM      9  C   UNL     1      18.247 -41.085   8.032  0.00  0.00    +0.000 A 
ATOM     10  C   UNL     1      18.252 -42.311   8.649  0.00  0.00    +0.000 A 
ATOM     11  N   UNL     1      17.108 -42.999   8.712  0.00  0.00    +0.000 NA
ATOM     12  C   UNL     1      15.945 -42.552   8.201  0.00  0.00    +0.000 A 
ATOM     13  C   UNL     1      15.959 -41.324   7.587  0.00  0.00    +0.000 A 
BRANCH   9  14
ATOM     14  C   UNL     1      19.481 -40.321   7.951  0.00  0.00    +0.000 A 
ATOM     15  C   UNL     1      20.660 -40.636   8.560  0.00  0.00    +0.000 A 
ATOM     16  C   UNL     1      21.807 -39.850   8.437  0.00  0.00    +0.000 A 
ATOM     17  C   UNL     1      21.763 -38.708   7.672  0.00  0.00    +0.000 A 
ATOM     18  C   UNL     1      20.585 -38.366   7.046  0.00  0.00    +0.000 A 
ATOM     19  C   UNL     1      19.457 -39.159   7.180  0.00  0.00    +0.000 A 
BRANCH  16  20
ATOM     20  C   UNL     1      23.041 -40.230   9.108  0.00  0.00    +0.000 C 
ATOM     21  O   UNL     1      23.995 -40.697   8.453  0.00  0.00    +0.000 OA
BRANCH  20  22
ATOM     22  O   UNL     1      23.201 -40.088  10.478  0.00  0.00    +0.000 OA
ATOM     23  H   UNL     1      23.692 -40.791  11.040  0.00  0.00    +0.000 HD
ENDBRANCH  20  22
ENDBRANCH  16  20
ENDBRANCH   9  14
ENDBRANCH   7  12
ENDBRANCH   1   7
BRANCH   5  24
ATOM     24  C   UNL     1      13.344 -41.317  11.039  0.00  0.00    +0.000 C 
BRANCH  24  25
ATOM     25  N   UNL     1      12.201 -41.686  11.887  0.00  0.00    +0.000 N 
ATOM     26  N   UNL     1      10.999 -42.077  11.500  0.00  0.00    +0.000 NA
ATOM     27  C   UNL     1      10.216 -42.338  12.546  0.00  0.00    +0.000 A 
ATOM     28  N   UNL     1      10.953 -42.102  13.645  0.00  0.00    +0.000 NA
ATOM     29  C   UNL     1      12.176 -41.701  13.231  0.00  0.00    +0.000 A 
ENDBRANCH  24  25
BRANCH  24  30
ATOM     30  C   UNL     1      12.864 -40.345  10.018  0.00  0.00    +0.000 C 
ATOM     31  O   UNL     1      13.520 -40.080   8.985  0.00  0.00    +0.000 OA
BRANCH  30  32
ATOM     32  O   UNL     1      11.655 -39.694  10.185  0.00  0.00    +0.000 OA
ATOM     33  H   UNL     1      10.856 -40.063  10.650  0.00  0.00    +0.000 HD
ENDBRANCH  30  32
ENDBRANCH  24  30
BRANCH  24  34
ATOM     34  C   UNL     1      14.294 -40.564  11.930  0.00  0.00    +0.000 C 
BRANCH  34  35
ATOM     35  C   UNL     1      14.206 -39.114  11.883  0.00  0.00    +0.000 C 
ATOM     36  O   UNL     1      13.181 -38.500  12.232  0.00  0.00    +0.000 OA
BRANCH  35  37
ATOM     37  C   UNL     1      15.350 -38.347  11.416  0.00  0.00    +0.000 A 
ATOM     38  C   UNL     1      16.327 -38.917  10.626  0.00  0.00    +0.000 A 
ATOM     39  C   UNL     1      17.413 -38.189  10.182  0.00  0.00    +0.000 A 
ATOM     40  C   UNL     1      17.560 -36.860  10.516  0.00  0.00    +0.000 A 
ATOM     41  C   UNL     1      16.592 -36.287  11.302  0.00  0.00    +0.000 A 
ATOM     42  C   UNL     1      15.512 -37.015  11.741  0.00  0.00    +0.000 A 
ATOM     43  C   UNL     1      18.747 -36.087  10.024  0.00  0.00    +0.000 C 
ENDBRANCH  35  37
ENDBRANCH  34  35
ENDBRANCH  24  34
ENDBRANCH   5  24
TORSDOF 12
ENDMDL
