MODEL 1
REMARK VINA RESULT:    -8.578      0.000      0.000
REMARK INTER + INTRA:         -11.120
REMARK INTER:                 -10.583
REMARK INTRA:                  -0.536
REMARK UNBOUND:                -0.536
REMARK  Name = 
REMARK  8 active torsions:
REMARK  status: ('A' for Active; 'I' for Inactive)
REMARK    1  A    between atoms: N_4  and  C_24
REMARK    2  A    between atoms: C_6  and  C_22
REMARK    3  A    between atoms: C_6  and  C_23
REMARK    4  A    between atoms: C_10  and  C_11
REMARK    5  A    between atoms: C_10  and  C_12
REMARK    6  A    between atoms: C_24  and  C_25
REMARK    7  A    between atoms: C_25  and  C_26
REMARK    8  A    between atoms: C_26  and  N_27
REMARK                            x       y       z     vdW  Elec       q    Type
REMARK                         _______ _______ _______ _____ _____    ______ ____
ROOT
ATOM      1  C   UNL     1      20.965 -42.492   7.008  0.00  0.00    +0.000 C 
ATOM      2  C   UNL     1      20.162 -43.066   7.909  0.00  0.00    +0.000 C 
ATOM      3  C   UNL     1      18.963 -42.107   7.887  0.00  0.00    +0.000 C 
ATOM      4  N   UNL     1      19.687 -40.868   7.655  0.00  0.00    +0.000 NA
ATOM      5  N   UNL     1      21.047 -41.199   7.745  0.00  0.00    +0.000 N 
ATOM      6  C   UNL     1      22.151 -40.613   8.372  0.00  0.00    +0.000 C 
ATOM      7  C   UNL     1      22.845 -41.436   9.440  0.00  0.00    +0.000 C 
ATOM      8  C   UNL     1      23.528 -42.661   9.044  0.00  0.00    +0.000 C 
ATOM      9  C   UNL     1      24.959 -42.625   8.698  0.00  0.00    +0.000 C 
ATOM     10  C   UNL     1      25.668 -43.737   9.515  0.00  0.00    +0.000 C 
ATOM     11  C   UNL     1      25.377 -43.500  11.011  0.00  0.00    +0.000 C 
ATOM     12  C   UNL     1      27.154 -43.493   9.451  0.00  0.00    +0.000 C 
ATOM     13  N   UNL     1      23.334 -43.742   9.983  0.00  0.00    +0.000 NA
ATOM     14  C   UNL     1      23.632 -45.023   9.550  0.00  0.00    +0.000 C 
ATOM     15  C   UNL     1      25.121 -45.032   9.097  0.00  0.00    +0.000 C 
ATOM     16  C   UNL     1      25.535 -46.115   8.483  0.00  0.00    +0.000 C 
ATOM     17  C   UNL     1      24.723 -47.318   8.188  0.00  0.00    +0.000 C 
ATOM     18  C   UNL     1      23.751 -47.567   7.328  0.00  0.00    +0.000 C 
ATOM     19  F   UNL     1      23.342 -48.935   7.501  0.00  0.00    +0.000 F 
ATOM     20  C   UNL     1      23.088 -46.837   6.294  0.00  0.00    +0.000 C 
ATOM     21  C   UNL     1      21.859 -46.511   5.948  0.00  0.00    +0.000 C 
ATOM     22  C   UNL     1      23.269 -40.020   7.537  0.00  0.00    +0.000 C 
ATOM     23  C   UNL     1      21.774 -39.322   9.148  0.00  0.00    +0.000 C 
ATOM     24  C   UNL     1      20.325 -44.200   8.785  0.00  0.00    +0.000 C 
ATOM     25  C   UNL     1      20.221 -45.509   8.651  0.00  0.00    +0.000 C 
ATOM     26  C   UNL     1      19.875 -46.325   7.499  0.00  0.00    +0.000 C 
ATOM     27  C   UNL     1      20.509 -46.724   6.433  0.00  0.00    +0.000 C 
ATOM     28 CL   UNL     1      19.429 -47.754   5.305  0.00  0.00    +0.000 Cl
ATOM     29 CL   UNL     1      21.626 -43.050   5.440  0.00  0.00    +0.000 Cl
ATOM     30  H   UNL     1      22.755 -43.559  10.789  0.00  0.00    +0.000 HD
ENDROOT
BRANCH   4  31
ATOM     31  C   UNL     1      19.091 -39.810   8.267  0.00  0.00    +0.000 C 
BRANCH  31  32
ATOM     32  C   UNL     1      18.198 -40.220   9.483  0.00  0.00    +0.000 C 
BRANCH  32  33
ATOM     33  C   UNL     1      16.990 -39.289   9.450  0.00  0.00    +0.000 C 
BRANCH  33  34
ATOM     34  N   UNL     1      17.122 -38.227  10.426  0.00  0.00    +0.000 NA
ATOM     35  C   UNL     1      17.634 -36.999   9.881  0.00  0.00    +0.000 C 
ATOM     36  C   UNL     1      17.657 -35.991  11.029  0.00  0.00    +0.000 C 
ATOM     37  O   UNL     1      16.337 -35.664  11.281  0.00  0.00    +0.000 OA
ATOM     38  C   UNL     1      15.676 -36.758  11.791  0.00  0.00    +0.000 C 
ATOM     39  C   UNL     1      15.794 -37.987  10.953  0.00  0.00    +0.000 C 
ENDBRANCH  33  34
ENDBRANCH  32  33
ENDBRANCH  31  32
ENDBRANCH   4  31
TORSDOF 4
ENDMDL
