MODEL 1
REMARK VINA RESULT:    -8.194      0.000      0.000
REMARK INTER + INTRA:         -15.104
REMARK INTER:                 -13.223
REMARK INTRA:                  -1.881
REMARK UNBOUND:                -1.881
REMARK  Name = 
REMARK  14 active torsions:
REMARK  status: ('A' for Active; 'I' for Inactive)
REMARK    1  A    between atoms: N_1  and  C_2
REMARK    2  A    between atoms: C_5  and  C_12
REMARK    3  A    between atoms: C_14  and  C_28
REMARK    4  A    between atoms: C_20  and  S_21
REMARK    5  A    between atoms: C_28  and  N_29
REMARK    6  A    between atoms: N_29  and  C_30
REMARK    7  A    between atoms: C_33  and  C_34
REMARK    8  A    between atoms: C_34  and  C_35
REMARK    9  A    between atoms: C_34  and  C_39
REMARK   10  A    between atoms: C_35  and  O_37
REMARK   11  A    between atoms: O_37  and  C_38
REMARK   12  A    between atoms: C_39  and  C_41
REMARK   13  A    between atoms: C_41  and  S_42
REMARK   14  A    between atoms: S_42  and  C_43
REMARK                            x       y       z     vdW  Elec       q    Type
REMARK                         _______ _______ _______ _____ _____    ______ ____
ROOT
ATOM      1  N   UNL     1      22.287 -44.185   8.181  0.00  0.00    +0.000 N 
ATOM      2  C   UNL     1      22.350 -43.610   9.517  0.00  0.00    +0.000 C 
ATOM      3  C   UNL     1      22.539 -42.159   9.247  0.00  0.00    +0.000 C 
ATOM      4  O   UNL     1      22.633 -42.003   7.865  0.00  0.00    +0.000 OA
ATOM      5  N   UNL     1      22.236 -43.143   7.275  0.00  0.00    +0.000 N 
ATOM      6  C   UNL     1      21.858 -43.093   5.906  0.00  0.00    +0.000 C 
ATOM      7  N   UNL     1      21.396 -43.952   5.075  0.00  0.00    +0.000 NA
ATOM      8  N   UNL     1      21.177 -43.425   3.830  0.00  0.00    +0.000 NA
ATOM      9  C   UNL     1      21.485 -42.185   3.783  0.00  0.00    +0.000 C 
ATOM     10  C   UNL     1      21.967 -41.807   5.125  0.00  0.00    +0.000 C 
ATOM     11  N   UNL     1      22.390 -40.867   5.732  0.00  0.00    +0.000 NA
ATOM     12  C   UNL     1      22.839 -39.731   6.251  0.00  0.00    +0.000 C 
ATOM     13  C   UNL     1      22.153 -38.653   6.678  0.00  0.00    +0.000 C 
ATOM     14  C   UNL     1      20.714 -38.498   6.661  0.00  0.00    +0.000 C 
ATOM     15  C   UNL     1      19.769 -39.145   7.289  0.00  0.00    +0.000 C 
ATOM     16  C   UNL     1      21.366 -41.436   9.858  0.00  0.00    +0.000 C 
ATOM     17  C   UNL     1      21.001 -40.134   9.244  0.00  0.00    +0.000 C 
ATOM     18  C   UNL     1      19.876 -40.268   8.240  0.00  0.00    +0.000 C 
ENDROOT
BRANCH   1  19
ATOM     19  C   UNL     1      22.292 -45.560   7.895  0.00  0.00    +0.000 A 
ATOM     20  C   UNL     1      21.056 -46.181   7.824  0.00  0.00    +0.000 A 
ATOM     21  N   UNL     1      19.933 -45.481   7.991  0.00  0.00    +0.000 NA
ATOM     22  C   UNL     1      18.690 -45.986   7.929  0.00  0.00    +0.000 A 
ATOM     23  C   UNL     1      18.584 -47.347   7.669  0.00  0.00    +0.000 A 
ATOM     24  C   UNL     1      19.732 -48.107   7.489  0.00  0.00    +0.000 A 
ATOM     25  C   UNL     1      20.988 -47.527   7.566  0.00  0.00    +0.000 A 
ATOM     26  N   UNL     1      22.122 -48.241   7.381  0.00  0.00    +0.000 NA
ATOM     27  C   UNL     1      23.349 -47.692   7.438  0.00  0.00    +0.000 A 
ATOM     28  C   UNL     1      23.421 -46.317   7.701  0.00  0.00    +0.000 A 
ATOM     29  C   UNL     1      17.499 -45.144   8.110  0.00  0.00    +0.000 C 
ENDBRANCH   1  19
BRANCH   9  30
ATOM     30  S   UNL     1      21.301 -41.237   2.287  0.00  0.00    +0.000 S 
ATOM     31  H   UNL     1      22.553 -40.770   1.820  0.00  0.00    +0.000 HD
ENDBRANCH   9  30
BRANCH   3  32
ATOM     32  C   UNL     1      23.788 -41.542   9.805  0.00  0.00    +0.000 C 
BRANCH  32  33
ATOM     33  N   UNL     1      24.742 -42.353  10.425  0.00  0.00    +0.000 NA
ATOM     34  C   UNL     1      25.850 -42.737   9.660  0.00  0.00    +0.000 C 
ATOM     35  H   UNL     1      24.882 -42.229  11.434  0.00  0.00    +0.000 HD
ENDBRANCH  32  33
ENDBRANCH   3  32
BRANCH  18  36
ATOM     36  C   UNL     1      18.621 -40.406   9.098  0.00  0.00    +0.000 C 
BRANCH  36  37
ATOM     37  C   UNL     1      17.916 -39.096   9.195  0.00  0.00    +0.000 C 
ATOM     38  O   UNL     1      17.048 -38.733   8.366  0.00  0.00    +0.000 OA
BRANCH  37  39
ATOM     39  O   UNL     1      18.239 -38.269  10.234  0.00  0.00    +0.000 OA
ATOM     40  C   UNL     1      18.439 -36.889  10.156  0.00  0.00    +0.000 C 
ENDBRANCH  37  39
ENDBRANCH  36  37
BRANCH  36  41
ATOM     41  C   UNL     1      17.651 -41.400   8.591  0.00  0.00    +0.000 C 
ATOM     42  O   UNL     1      17.889 -42.008   7.570  0.00  0.00    +0.000 OA
BRANCH  41  43
ATOM     43  C   UNL     1      16.383 -41.660   9.326  0.00  0.00    +0.000 C 
BRANCH  43  44
ATOM     44  S   UNL     1      14.920 -41.819   8.334  0.00  0.00    +0.000 S 
BRANCH  44  45
ATOM     45  C   UNL     1      13.460 -42.306   9.188  0.00  0.00    +0.000 A 
ATOM     46  N   UNL     1      13.468 -42.990  10.347  0.00  0.00    +0.000 NA
ATOM     47  C   UNL     1      12.329 -43.337  10.966  0.00  0.00    +0.000 A 
ATOM     48  C   UNL     1      11.083 -43.027  10.472  0.00  0.00    +0.000 A 
ATOM     49  C   UNL     1      11.041 -42.324   9.278  0.00  0.00    +0.000 A 
ATOM     50  C   UNL     1      12.227 -41.980   8.666  0.00  0.00    +0.000 A 
ENDBRANCH  44  45
ENDBRANCH  43  44
ENDBRANCH  41  43
ENDBRANCH  36  41
ENDBRANCH  18  36
TORSDOF 11
ENDMDL
