MODEL 1
REMARK VINA RESULT:    -7.644      0.000      0.000
REMARK INTER + INTRA:         -17.972
REMARK INTER:                 -13.900
REMARK INTRA:                  -4.071
REMARK UNBOUND:                -4.071
REMARK  Name = 
REMARK  18 active torsions:
REMARK  status: ('A' for Active; 'I' for Inactive)
REMARK    1  A    between atoms: N_1  and  C_20
REMARK    2  A    between atoms: C_2  and  S_15
REMARK    3  A    between atoms: C_5  and  C_6
REMARK    4  A    between atoms: C_6  and  N_7
REMARK    5  A    between atoms: N_7  and  C_8
REMARK    6  A    between atoms: S_15  and  C_16
REMARK    7  A    between atoms: C_16  and  C_17
REMARK    8  A    between atoms: C_17  and  O_19
REMARK    9  A    between atoms: C_25  and  N_26
REMARK   10  A    between atoms: C_27  and  C_45
REMARK   11  A    between atoms: C_28  and  C_44
REMARK   12  A    between atoms: C_29  and  O_39
REMARK   13  A    between atoms: C_29  and  C_40
REMARK   14  A    between atoms: C_30  and  C_38
REMARK   15  A    between atoms: C_31  and  C_32
REMARK   16  A    between atoms: C_40  and  C_41
REMARK   17  A    between atoms: C_41  and  C_42
REMARK   18  A    between atoms: C_42  and  C_43
REMARK                            x       y       z     vdW  Elec       q    Type
REMARK                         _______ _______ _______ _____ _____    ______ ____
ROOT
ATOM      1  C   UNL     1      25.259 -44.355   8.414  0.00  0.00    +0.000 A 
ATOM      2  C   UNL     1      26.598 -44.270   8.728  0.00  0.00    +0.000 A 
ATOM      3  C   UNL     1      27.378 -44.304   7.576  0.00  0.00    +0.000 A 
ATOM      4  C   UNL     1      26.888 -44.365   6.311  0.00  0.00    +0.000 A 
ATOM      5  C   UNL     1      25.493 -44.454   6.045  0.00  0.00    +0.000 A 
ATOM      6  C   UNL     1      24.753 -44.479   7.226  0.00  0.00    +0.000 A 
ENDROOT
BRANCH   6   7
ATOM      7  N   UNL     1      23.435 -45.200   7.118  0.00  0.00    +0.000 N 
ATOM      8  C   UNL     1      22.309 -44.365   6.983  0.00  0.00    +0.000 C 
ATOM      9  C   UNL     1      20.985 -45.033   6.998  0.00  0.00    +0.000 C 
ATOM     10  C   UNL     1      21.005 -46.542   6.805  0.00  0.00    +0.000 C 
ATOM     11  C   UNL     1      22.056 -47.110   7.678  0.00  0.00    +0.000 C 
ATOM     12  C   UNL     1      23.442 -46.618   7.261  0.00  0.00    +0.000 C 
ATOM     13  C   UNL     1      21.921 -48.567   7.898  0.00  0.00    +0.000 C 
ATOM     14  C   UNL     1      19.993 -44.421   6.050  0.00  0.00    +0.000 C 
BRANCH  12  15
ATOM     15  C   UNL     1      24.063 -47.410   6.152  0.00  0.00    +0.000 A 
ATOM     16  C   UNL     1      25.121 -48.217   6.310  0.00  0.00    +0.000 A 
ATOM     17  C   UNL     1      25.868 -48.784   5.314  0.00  0.00    +0.000 A 
ATOM     18  C   UNL     1      25.493 -48.510   4.011  0.00  0.00    +0.000 A 
ATOM     19  C   UNL     1      24.404 -47.694   3.793  0.00  0.00    +0.000 A 
ATOM     20  C   UNL     1      23.664 -47.153   4.840  0.00  0.00    +0.000 A 
ENDBRANCH  12  15
BRANCH   8  21
ATOM     21  C   UNL     1      22.476 -43.357   5.905  0.00  0.00    +0.000 A 
ATOM     22  C   UNL     1      22.541 -42.006   6.166  0.00  0.00    +0.000 A 
ATOM     23  C   UNL     1      22.548 -41.060   5.218  0.00  0.00    +0.000 A 
ATOM     24  C   UNL     1      22.458 -41.357   3.892  0.00  0.00    +0.000 A 
ATOM     25  C   UNL     1      22.368 -42.706   3.584  0.00  0.00    +0.000 A 
ATOM     26  C   UNL     1      22.405 -43.678   4.553  0.00  0.00    +0.000 A 
ENDBRANCH   8  21
BRANCH  10  27
ATOM     27  O   UNL     1      21.220 -46.864   5.456  0.00  0.00    +0.000 OA
ATOM     28  H   UNL     1      20.810 -46.111   4.953  0.00  0.00    +0.000 HD
ENDBRANCH  10  27
BRANCH  10  29
ATOM     29  C   UNL     1      19.628 -47.014   7.096  0.00  0.00    +0.000 C 
BRANCH  29  30
ATOM     30  C   UNL     1      18.933 -47.940   6.141  0.00  0.00    +0.000 C 
BRANCH  30  31
ATOM     31  C   UNL     1      18.287 -49.119   6.816  0.00  0.00    +0.000 C 
ATOM     32  C   UNL     1      18.265 -48.773   8.322  0.00  0.00    +0.000 C 
ENDBRANCH  30  31
ENDBRANCH  29  30
ENDBRANCH  10  29
ENDBRANCH   6   7
BRANCH   1  33
ATOM     33  N   UNL     1      24.482 -43.911   9.613  0.00  0.00    +0.000 N 
ATOM     34  C   UNL     1      24.178 -44.774  10.474  0.00  0.00    +0.000 A 
ATOM     35  N   UNL     1      23.227 -44.194  11.277  0.00  0.00    +0.000 NA
ATOM     36  N   UNL     1      23.097 -42.911  10.854  0.00  0.00    +0.000 NA
ATOM     37  C   UNL     1      23.961 -42.763   9.784  0.00  0.00    +0.000 A 
BRANCH  37  38
ATOM     38  C   UNL     1      24.301 -41.369   9.385  0.00  0.00    +0.000 C 
BRANCH  38  39
ATOM     39  N   UNL     1      23.527 -40.347   9.900  0.00  0.00    +0.000 N 
ATOM     40  H   UNL     1      23.577 -39.892  10.822  0.00  0.00    +0.000 HD
BRANCH  39  41
ATOM     41  C   UNL     1      22.418 -39.818   9.137  0.00  0.00    +0.000 A 
ATOM     42  C   UNL     1      21.176 -40.330   9.180  0.00  0.00    +0.000 A 
ATOM     43  C   UNL     1      20.187 -39.809   8.310  0.00  0.00    +0.000 A 
ATOM     44  C   UNL     1      20.501 -38.788   7.447  0.00  0.00    +0.000 A 
ATOM     45  F   UNL     1      19.622 -38.399   6.497  0.00  0.00    +0.000 F 
ATOM     46  C   UNL     1      21.810 -38.313   7.416  0.00  0.00    +0.000 A 
ATOM     47  C   UNL     1      22.740 -38.868   8.238  0.00  0.00    +0.000 A 
ENDBRANCH  39  41
ENDBRANCH  38  39
ENDBRANCH  37  38
BRANCH  34  48
ATOM     48  S   UNL     1      25.077 -46.243  11.046  0.00  0.00    +0.000 S 
BRANCH  48  49
ATOM     49  C   UNL     1      26.586 -45.748  11.927  0.00  0.00    +0.000 C 
BRANCH  49  50
ATOM     50  C   UNL     1      26.204 -44.479  12.654  0.00  0.00    +0.000 C 
ATOM     51  O   UNL     1      26.728 -43.377  12.437  0.00  0.00    +0.000 OA
BRANCH  50  52
ATOM     52  O   UNL     1      25.213 -44.564  13.608  0.00  0.00    +0.000 OA
ATOM     53  H   UNL     1      25.236 -44.126  14.518  0.00  0.00    +0.000 HD
ENDBRANCH  50  52
ENDBRANCH  49  50
ENDBRANCH  48  49
ENDBRANCH  34  48
ENDBRANCH   1  33
TORSDOF 15
ENDMDL
