MODEL 1
REMARK VINA RESULT:    -7.958      0.000      0.000
REMARK INTER + INTRA:         -17.082
REMARK INTER:                 -14.239
REMARK INTRA:                  -2.844
REMARK UNBOUND:                -2.844
REMARK  Name = 
REMARK  16 active torsions:
REMARK  status: ('A' for Active; 'I' for Inactive)
REMARK    1  A    between atoms: N_1  and  C_21
REMARK    2  A    between atoms: C_2  and  S_15
REMARK    3  A    between atoms: C_5  and  C_6
REMARK    4  A    between atoms: C_6  and  O_7
REMARK    5  A    between atoms: O_7  and  C_8
REMARK    6  A    between atoms: C_11  and  C_14
REMARK    7  A    between atoms: S_15  and  C_16
REMARK    8  A    between atoms: C_16  and  C_17
REMARK    9  A    between atoms: C_16  and  C_20
REMARK   10  A    between atoms: C_17  and  O_19
REMARK   11  A    between atoms: C_21  and  C_22
REMARK   12  A    between atoms: C_27  and  N_28
REMARK   13  A    between atoms: C_29  and  C_30
REMARK   14  A    between atoms: C_29  and  C_33
REMARK   15  A    between atoms: C_30  and  C_31
REMARK   16  A    between atoms: C_33  and  C_34
REMARK                            x       y       z     vdW  Elec       q    Type
REMARK                         _______ _______ _______ _____ _____    ______ ____
ROOT
ATOM      1  N   UNL     1      21.633 -40.331   7.735  0.00  0.00    +0.000 N 
ATOM      2  C   UNL     1      21.837 -40.313   6.416  0.00  0.00    +0.000 A 
ATOM      3  N   UNL     1      21.162 -39.248   5.872  0.00  0.00    +0.000 NA
ATOM      4  N   UNL     1      20.570 -38.660   6.886  0.00  0.00    +0.000 NA
ATOM      5  C   UNL     1      20.818 -39.271   8.043  0.00  0.00    +0.000 A 
ENDROOT
BRANCH   5   6
ATOM      6  C   UNL     1      20.363 -38.948   9.416  0.00  0.00    +0.000 C 
BRANCH   6   7
ATOM      7  O   UNL     1      19.616 -37.762   9.458  0.00  0.00    +0.000 OA
BRANCH   7   8
ATOM      8  C   UNL     1      18.430 -37.544  10.091  0.00  0.00    +0.000 A 
ATOM      9  C   UNL     1      18.255 -36.296  10.684  0.00  0.00    +0.000 A 
ATOM     10  C   UNL     1      17.085 -35.965  11.357  0.00  0.00    +0.000 A 
ATOM     11  C   UNL     1      16.061 -36.886  11.449  0.00  0.00    +0.000 A 
ATOM     12  C   UNL     1      16.260 -38.128  10.848  0.00  0.00    +0.000 A 
ATOM     13  C   UNL     1      17.422 -38.455  10.179  0.00  0.00    +0.000 A 
ATOM     14  C   UNL     1      14.786 -36.581  12.158  0.00  0.00    +0.000 C 
ENDBRANCH   7   8
ENDBRANCH   6   7
ENDBRANCH   5   6
BRANCH   2  15
ATOM     15  S   UNL     1      22.799 -41.492   5.499  0.00  0.00    +0.000 S 
BRANCH  15  16
ATOM     16  C   UNL     1      21.879 -42.723   4.606  0.00  0.00    +0.000 C 
ATOM     17  C   UNL     1      22.186 -44.145   4.922  0.00  0.00    +0.000 C 
BRANCH  16  18
ATOM     18  C   UNL     1      21.858 -42.482   3.133  0.00  0.00    +0.000 C 
ATOM     19  O   UNL     1      21.268 -41.483   2.688  0.00  0.00    +0.000 OA
BRANCH  18  20
ATOM     20  O   UNL     1      22.498 -43.375   2.289  0.00  0.00    +0.000 OA
ATOM     21  H   UNL     1      23.039 -44.169   2.623  0.00  0.00    +0.000 HD
ENDBRANCH  18  20
ENDBRANCH  16  18
ENDBRANCH  15  16
ENDBRANCH   2  15
BRANCH   1  22
ATOM     22  C   UNL     1      22.135 -41.250   8.772  0.00  0.00    +0.000 C 
BRANCH  22  23
ATOM     23  C   UNL     1      21.470 -42.582   8.636  0.00  0.00    +0.000 A 
ATOM     24  C   UNL     1      20.096 -42.613   8.462  0.00  0.00    +0.000 A 
ATOM     25  C   UNL     1      19.433 -43.813   8.356  0.00  0.00    +0.000 A 
ATOM     26  C   UNL     1      20.182 -44.968   8.430  0.00  0.00    +0.000 A 
ATOM     27  C   UNL     1      21.525 -44.967   8.601  0.00  0.00    +0.000 A 
ATOM     28  C   UNL     1      22.211 -43.746   8.708  0.00  0.00    +0.000 A 
BRANCH  28  29
ATOM     29  N   UNL     1      23.607 -43.757   8.863  0.00  0.00    +0.000 N 
ATOM     30  C   UNL     1      24.537 -43.548   9.900  0.00  0.00    +0.000 C 
ATOM     31  C   UNL     1      25.380 -44.839   9.784  0.00  0.00    +0.000 C 
ATOM     32  C   UNL     1      25.600 -44.905   8.302  0.00  0.00    +0.000 C 
ATOM     33  C   UNL     1      24.477 -44.083   7.707  0.00  0.00    +0.000 C 
BRANCH  30  34
ATOM     34  C   UNL     1      25.565 -42.467   9.603  0.00  0.00    +0.000 C 
BRANCH  34  35
ATOM     35  C   UNL     1      26.620 -42.301  10.594  0.00  0.00    +0.000 C 
ATOM     36  C   UNL     1      27.894 -42.219  10.243  0.00  0.00    +0.000 C 
ENDBRANCH  34  35
ENDBRANCH  30  34
BRANCH  30  37
ATOM     37  C   UNL     1      24.052 -43.477  11.302  0.00  0.00    +0.000 C 
BRANCH  37  38
ATOM     38  C   UNL     1      24.285 -44.800  12.009  0.00  0.00    +0.000 C 
ATOM     39  C   UNL     1      24.715 -44.832  13.266  0.00  0.00    +0.000 C 
ENDBRANCH  37  38
ENDBRANCH  30  37
ENDBRANCH  28  29
ENDBRANCH  22  23
ENDBRANCH   1  22
TORSDOF 14
ENDMDL
