MODEL 1
REMARK VINA RESULT:    -7.814      0.000      0.000
REMARK INTER + INTRA:         -17.082
REMARK INTER:                 -12.839
REMARK INTRA:                  -4.243
REMARK UNBOUND:                -4.243
REMARK  Name = 
REMARK  14 active torsions:
REMARK  status: ('A' for Active; 'I' for Inactive)
REMARK    1  A    between atoms: C_1  and  N_15
REMARK    2  A    between atoms: C_2  and  N_3
REMARK    3  A    between atoms: C_10  and  C_12
REMARK    4  A    between atoms: C_12  and  O_14
REMARK    5  A    between atoms: C_19  and  N_20
REMARK    6  A    between atoms: C_21  and  C_31
REMARK    7  A    between atoms: C_22  and  N_28
REMARK    8  A    between atoms: C_24  and  C_25
REMARK    9  A    between atoms: N_28  and  C_29
REMARK   10  A    between atoms: N_28  and  C_30
REMARK   11  A    between atoms: C_36  and  N_37
REMARK   12  A    between atoms: C_38  and  C_53
REMARK   13  A    between atoms: C_45  and  C_47
REMARK   14  A    between atoms: C_47  and  O_49
REMARK                            x       y       z     vdW  Elec       q    Type
REMARK                         _______ _______ _______ _____ _____    ______ ____
ROOT
ATOM      1  N   UNL     1      23.354 -45.038   9.802  0.00  0.00    +0.000 N 
ATOM      2  C   UNL     1      22.526 -45.916   9.016  0.00  0.00    +0.000 C 
ATOM      3  C   UNL     1      22.715 -47.229   9.819  0.00  0.00    +0.000 C 
ATOM      4  C   UNL     1      22.531 -46.719  11.273  0.00  0.00    +0.000 C 
ATOM      5  C   UNL     1      22.974 -45.326  11.222  0.00  0.00    +0.000 C 
ENDROOT
BRANCH   2   6
ATOM      6  C   UNL     1      22.838 -46.041   7.617  0.00  0.00    +0.000 A 
ATOM      7  C   UNL     1      23.843 -46.903   7.216  0.00  0.00    +0.000 A 
ATOM      8  C   UNL     1      24.233 -46.986   5.896  0.00  0.00    +0.000 A 
ATOM      9  C   UNL     1      23.612 -46.191   4.922  0.00  0.00    +0.000 A 
ATOM     10  C   UNL     1      22.622 -45.350   5.343  0.00  0.00    +0.000 A 
ATOM     11  C   UNL     1      22.200 -45.242   6.687  0.00  0.00    +0.000 A 
BRANCH  11  12
ATOM     12  N   UNL     1      21.134 -44.387   6.996  0.00  0.00    +0.000 N 
ATOM     13  C   UNL     1      19.750 -44.718   7.209  0.00  0.00    +0.000 C 
ATOM     14  C   UNL     1      19.161 -44.078   8.412  0.00  0.00    +0.000 C 
ATOM     15  C   UNL     1      19.436 -42.626   8.600  0.00  0.00    +0.000 C 
ATOM     16  C   UNL     1      20.613 -42.123   7.833  0.00  0.00    +0.000 A 
ATOM     17  C   UNL     1      21.395 -42.987   7.104  0.00  0.00    +0.000 A 
ATOM     18  C   UNL     1      22.472 -42.374   6.443  0.00  0.00    +0.000 A 
ATOM     19  C   UNL     1      22.712 -41.030   6.526  0.00  0.00    +0.000 A 
ATOM     20  C   UNL     1      21.911 -40.200   7.263  0.00  0.00    +0.000 A 
ATOM     21  C   UNL     1      20.849 -40.754   7.923  0.00  0.00    +0.000 A 
ATOM     22  C   UNL     1      18.210 -41.881   8.231  0.00  0.00    +0.000 C 
ATOM     23  C   UNL     1      17.205 -42.720   8.058  0.00  0.00    +0.000 C 
ATOM     24  C   UNL     1      17.641 -44.120   8.293  0.00  0.00    +0.000 C 
BRANCH  13  25
ATOM     25  C   UNL     1      19.348 -46.099   7.053  0.00  0.00    +0.000 A 
ATOM     26  C   UNL     1      18.840 -46.851   8.119  0.00  0.00    +0.000 A 
ATOM     27  C   UNL     1      18.454 -48.182   7.960  0.00  0.00    +0.000 A 
ATOM     28 CL   UNL     1      17.820 -49.097   9.298  0.00  0.00    +0.000 Cl
ATOM     29  C   UNL     1      18.571 -48.781   6.724  0.00  0.00    +0.000 A 
ATOM     30  C   UNL     1      19.058 -48.082   5.669  0.00  0.00    +0.000 A 
ATOM     31  C   UNL     1      19.442 -46.745   5.848  0.00  0.00    +0.000 A 
ENDBRANCH  13  25
BRANCH  20  32
ATOM     32  C   UNL     1      22.182 -38.750   7.352  0.00  0.00    +0.000 C 
ATOM     33  O   UNL     1      21.791 -37.993   6.443  0.00  0.00    +0.000 OA
BRANCH  32  34
ATOM     34  O   UNL     1      22.862 -38.242   8.434  0.00  0.00    +0.000 OA
ATOM     35  H   UNL     1      23.695 -37.638   8.371  0.00  0.00    +0.000 HD
ENDBRANCH  32  34
ENDBRANCH  20  32
ENDBRANCH  11  12
ENDBRANCH   2   6
BRANCH   1  40
ATOM     36  N   UNL     1      25.636 -44.048   9.428  0.00  0.00    +0.000 N 
ATOM     37  C   UNL     1      26.047 -42.729   9.285  0.00  0.00    +0.000 A 
ATOM     38  C   UNL     1      24.959 -41.903   9.292  0.00  0.00    +0.000 A 
ATOM     39  C   UNL     1      23.879 -42.714   9.442  0.00  0.00    +0.000 A 
ATOM     40  C   UNL     1      24.306 -44.077   9.532  0.00  0.00    +0.000 A 
BRANCH  36  41
ATOM     41  C   UNL     1      26.535 -45.117   9.409  0.00  0.00    +0.000 A 
ATOM     42  C   UNL     1      27.682 -45.090  10.219  0.00  0.00    +0.000 A 
ATOM     43  C   UNL     1      28.601 -46.133  10.245  0.00  0.00    +0.000 A 
ATOM     44  C   UNL     1      28.396 -47.238   9.459  0.00  0.00    +0.000 A 
ATOM     45  C   UNL     1      27.271 -47.298   8.646  0.00  0.00    +0.000 A 
ATOM     46  C   UNL     1      26.381 -46.239   8.648  0.00  0.00    +0.000 A 
BRANCH  42  47
ATOM     47  N   UNL     1      28.019 -44.006  11.090  0.00  0.00    +0.000 N 
ATOM     48  C   UNL     1      27.614 -43.831  12.364  0.00  0.00    +0.000 A 
ATOM     49  N   UNL     1      28.166 -42.708  12.827  0.00  0.00    +0.000 NA
ATOM     50  C   UNL     1      28.935 -42.135  11.866  0.00  0.00    +0.000 A 
ATOM     51  C   UNL     1      28.819 -42.976  10.791  0.00  0.00    +0.000 A 
ENDBRANCH  42  47
BRANCH  45  52
ATOM     52  C   UNL     1      27.093 -48.485   7.817  0.00  0.00    +0.000 C 
ATOM     53  O   UNL     1      27.784 -48.602   6.783  0.00  0.00    +0.000 OA
BRANCH  52  54
ATOM     54  O   UNL     1      26.199 -49.483   8.120  0.00  0.00    +0.000 OA
ATOM     55  H   UNL     1      25.205 -49.408   7.947  0.00  0.00    +0.000 HD
ENDBRANCH  52  54
ENDBRANCH  45  52
ENDBRANCH  36  41
ENDBRANCH   1  40
BRANCH   5  56
ATOM     56  C   UNL     1      24.030 -45.006  12.150  0.00  0.00    +0.000 C 
ATOM     57  O   UNL     1      24.940 -45.828  12.450  0.00  0.00    +0.000 OA
ATOM     58  N   UNL     1      24.152 -43.740  12.811  0.00  0.00    +0.000 N 
ATOM     59  H   UNL     1      23.787 -43.484  13.719  0.00  0.00    +0.000 HD
ATOM     60  H   UNL     1      24.694 -42.999  12.273  0.00  0.00    +0.000 HD
ENDBRANCH   5  56
BRANCH   3  61
ATOM     61  N   UNL     1      21.712 -48.187   9.630  0.00  0.00    +0.000 NA
ATOM     62  C   UNL     1      21.922 -49.268   8.747  0.00  0.00    +0.000 C 
ATOM     63  C   UNL     1      20.883 -48.544  10.726  0.00  0.00    +0.000 C 
ENDBRANCH   3  61
TORSDOF 12
ENDMDL
