MODEL 1
REMARK VINA RESULT:    -9.340      0.000      0.000
REMARK INTER + INTRA:         -20.173
REMARK INTER:                 -17.530
REMARK INTRA:                  -2.643
REMARK UNBOUND:                -2.643
REMARK  Name = 
REMARK  18 active torsions:
REMARK  status: ('A' for Active; 'I' for Inactive)
REMARK    1  A    between atoms: N_1  and  C_2
REMARK    2  A    between atoms: C_2  and  C_3
REMARK    3  A    between atoms: N_5  and  C_6
REMARK    4  A    between atoms: C_9  and  O_12
REMARK    5  A    between atoms: O_12  and  C_13
REMARK    6  A    between atoms: C_16  and  N_19
REMARK    7  A    between atoms: N_19  and  C_20
REMARK    8  A    between atoms: C_20  and  C_29
REMARK    9  A    between atoms: C_21  and  C_22
REMARK   10  A    between atoms: C_22  and  O_24
REMARK   11  A    between atoms: N_31  and  C_32
REMARK   12  A    between atoms: C_32  and  C_33
REMARK   13  A    between atoms: C_34  and  N_35
REMARK   14  A    between atoms: C_36  and  C_37
REMARK   15  A    between atoms: C_37  and  O_39
REMARK   16  A    between atoms: C_42  and  C_43
REMARK   17  A    between atoms: C_46  and  C_49
REMARK   18  A    between atoms: C_49  and  C_50
REMARK                            x       y       z     vdW  Elec       q    Type
REMARK                         _______ _______ _______ _____ _____    ______ ____
ROOT
ATOM      1  C   UNL     1      13.728 -42.574   9.125  0.00  0.00    +0.000 C 
ATOM      2  C   UNL     1      12.786 -41.487   8.705  0.00  0.00    +0.000 C 
ATOM      3  C   UNL     1      11.338 -41.917   8.870  0.00  0.00    +0.000 C 
ATOM      4  C   UNL     1      11.188 -43.384   8.712  0.00  0.00    +0.000 C 
ATOM      5  C   UNL     1      12.139 -44.216   8.340  0.00  0.00    +0.000 C 
ATOM      6  C   UNL     1      13.488 -43.683   8.045  0.00  0.00    +0.000 C 
ENDROOT
BRANCH   1   7
ATOM      7  C   UNL     1      15.132 -42.180   8.897  0.00  0.00    +0.000 C 
ATOM      8  O   UNL     1      16.031 -42.125   9.773  0.00  0.00    +0.000 OA
ATOM      9  N   UNL     1      15.563 -41.815   7.570  0.00  0.00    +0.000 N 
ATOM     10  H   UNL     1      14.899 -41.831   6.775  0.00  0.00    +0.000 HD
BRANCH   9  11
ATOM     11  C   UNL     1      16.938 -41.422   7.323  0.00  0.00    +0.000 C 
BRANCH  11  12
ATOM     12  C   UNL     1      16.971 -40.016   6.861  0.00  0.00    +0.000 C 
ATOM     13  C   UNL     1      17.966 -39.189   6.976  0.00  0.00    +0.000 C 
BRANCH  13  14
ATOM     14  N   UNL     1      19.242 -39.460   7.574  0.00  0.00    +0.000 N 
ATOM     15  C   UNL     1      20.483 -39.574   6.874  0.00  0.00    +0.000 C 
ATOM     16  C   UNL     1      21.486 -38.627   7.562  0.00  0.00    +0.000 C 
ATOM     17  S   UNL     1      21.082 -39.036   9.290  0.00  0.00    +0.000 S 
ATOM     18  C   UNL     1      19.360 -39.629   9.005  0.00  0.00    +0.000 C 
BRANCH  18  19
ATOM     19  C   UNL     1      18.505 -38.612   9.683  0.00  0.00    +0.000 A 
ATOM     20  C   UNL     1      17.268 -38.887  10.181  0.00  0.00    +0.000 A 
ATOM     21  C   UNL     1      16.525 -37.892  10.818  0.00  0.00    +0.000 A 
ATOM     22  C   UNL     1      17.025 -36.623  10.955  0.00  0.00    +0.000 A 
ATOM     23  C   UNL     1      18.285 -36.358  10.444  0.00  0.00    +0.000 A 
ATOM     24  C   UNL     1      19.018 -37.343   9.813  0.00  0.00    +0.000 A 
BRANCH  22  25
ATOM     25  C   UNL     1      16.270 -35.542  11.625  0.00  0.00    +0.000 C 
ATOM     26  C   UNL     1      14.782 -35.679  11.391  0.00  0.00    +0.000 C 
ENDBRANCH  22  25
ENDBRANCH  18  19
BRANCH  15  27
ATOM     27  C   UNL     1      21.059 -40.910   6.776  0.00  0.00    +0.000 C 
ATOM     28  O   UNL     1      22.292 -41.073   6.690  0.00  0.00    +0.000 OA
BRANCH  27  29
ATOM     29  O   UNL     1      20.245 -42.026   6.775  0.00  0.00    +0.000 OA
ATOM     30  H   UNL     1      20.190 -42.655   6.001  0.00  0.00    +0.000 HD
ENDBRANCH  27  29
ENDBRANCH  15  27
ENDBRANCH  13  14
ENDBRANCH  11  12
ENDBRANCH   9  11
ENDBRANCH   1   7
BRANCH   2  31
ATOM     31  C   UNL     1      13.016 -40.155   9.234  0.00  0.00    +0.000 C 
ATOM     32  O   UNL     1      12.276 -39.731  10.155  0.00  0.00    +0.000 OA
BRANCH  31  33
ATOM     33  O   UNL     1      14.017 -39.319   8.773  0.00  0.00    +0.000 OA
ATOM     34  H   UNL     1      14.609 -38.843   9.422  0.00  0.00    +0.000 HD
ENDBRANCH  31  33
ENDBRANCH   2  31
BRANCH   1  35
ATOM     35  N   UNL     1      13.465 -43.184  10.379  0.00  0.00    +0.000 N 
ATOM     36  H   UNL     1      13.581 -44.264  10.388  0.00  0.00    +0.000 HD
BRANCH  35  40
ATOM     37  N   UNL     1      12.231 -41.704  14.107  0.00  0.00    +0.000 N 
ATOM     38  C   UNL     1      11.481 -42.555  13.411  0.00  0.00    +0.000 A 
ATOM     39  C   UNL     1      11.867 -43.042  12.183  0.00  0.00    +0.000 A 
ATOM     40  C   UNL     1      13.089 -42.653  11.610  0.00  0.00    +0.000 A 
ATOM     41  C   UNL     1      13.835 -41.781  12.348  0.00  0.00    +0.000 A 
ATOM     42  C   UNL     1      13.408 -41.314  13.581  0.00  0.00    +0.000 A 
BRANCH  37  43
ATOM     43  C   UNL     1      11.805 -41.227  15.416  0.00  0.00    +0.000 C 
BRANCH  43  44
ATOM     44  C   UNL     1      10.356 -40.886  15.385  0.00  0.00    +0.000 C 
ATOM     45  O   UNL     1       9.594 -41.573  16.090  0.00  0.00    +0.000 OA
ATOM     46  N   UNL     1       9.828 -39.838  14.602  0.00  0.00    +0.000 N 
ATOM     47  H   UNL     1      10.526 -39.276  14.021  0.00  0.00    +0.000 HD
BRANCH  46  48
ATOM     48  C   UNL     1       8.469 -39.457  14.517  0.00  0.00    +0.000 A 
ATOM     49  C   UNL     1       7.516 -40.075  13.743  0.00  0.00    +0.000 A 
ATOM     50  C   UNL     1       6.212 -39.613  13.708  0.00  0.00    +0.000 A 
ATOM     51  C   UNL     1       5.810 -38.516  14.445  0.00  0.00    +0.000 A 
ATOM     52  C   UNL     1       6.753 -37.868  15.240  0.00  0.00    +0.000 A 
ATOM     53  C   UNL     1       8.036 -38.355  15.249  0.00  0.00    +0.000 A 
BRANCH  51  54
ATOM     54  O   UNL     1       4.534 -38.014  14.449  0.00  0.00    +0.000 OA
ATOM     55  C   UNL     1       4.299 -36.695  14.059  0.00  0.00    +0.000 C 
ENDBRANCH  51  54
ENDBRANCH  46  48
ENDBRANCH  43  44
ENDBRANCH  37  43
ENDBRANCH  35  40
ENDBRANCH   1  35
TORSDOF 16
ENDMDL
