MODEL 1
REMARK VINA RESULT:    -8.701      0.000      0.000
REMARK INTER + INTRA:         -17.570
REMARK INTER:                 -14.550
REMARK INTRA:                  -3.020
REMARK UNBOUND:                -3.020
REMARK  Name = 
REMARK  14 active torsions:
REMARK  status: ('A' for Active; 'I' for Inactive)
REMARK    1  A    between atoms: C_1  and  C_21
REMARK    2  A    between atoms: C_2  and  C_18
REMARK    3  A    between atoms: C_4  and  N_17
REMARK    4  A    between atoms: C_5  and  C_15
REMARK    5  A    between atoms: C_6  and  C_7
REMARK    6  A    between atoms: C_18  and  O_19
REMARK    7  A    between atoms: O_19  and  C_20
REMARK    8  A    between atoms: C_21  and  O_23
REMARK    9  A    between atoms: O_23  and  C_24
REMARK   10  A    between atoms: C_24  and  N_25
REMARK   11  A    between atoms: N_28  and  C_29
REMARK   12  A    between atoms: C_29  and  C_30
REMARK   13  A    between atoms: C_33  and  O_36
REMARK   14  A    between atoms: O_36  and  C_37
REMARK                            x       y       z     vdW  Elec       q    Type
REMARK                         _______ _______ _______ _____ _____    ______ ____
ROOT
ATOM      1  C   UNL     1      20.417 -43.358   7.943  0.00  0.00    +0.000 C 
ATOM      2  O   UNL     1      20.551 -43.494   6.652  0.00  0.00    +0.000 OA
ENDROOT
BRANCH   1   3
ATOM      3  C   UNL     1      21.597 -43.854   8.726  0.00  0.00    +0.000 C 
ATOM      4  C   UNL     1      21.614 -44.963   9.391  0.00  0.00    +0.000 C 
ATOM      5  O   UNL     1      22.773 -45.346  10.165  0.00  0.00    +0.000 OA
ATOM      6  C   UNL     1      23.853 -44.534  10.182  0.00  0.00    +0.000 C 
ATOM      7  C   UNL     1      23.914 -43.393   9.503  0.00  0.00    +0.000 C 
ATOM      8  C   UNL     1      22.785 -43.001   8.687  0.00  0.00    +0.000 C 
BRANCH   8   9
ATOM      9  C   UNL     1      22.600 -41.544   8.570  0.00  0.00    +0.000 A 
ATOM     10  C   UNL     1      22.183 -40.745   9.623  0.00  0.00    +0.000 A 
ATOM     11  F   UNL     1      21.938 -41.235  10.833  0.00  0.00    +0.000 F 
ATOM     12  C   UNL     1      22.043 -39.368   9.415  0.00  0.00    +0.000 A 
ATOM     13  C   UNL     1      22.304 -38.784   8.197  0.00  0.00    +0.000 A 
ATOM     14  C   UNL     1      22.712 -39.564   7.149  0.00  0.00    +0.000 A 
ATOM     15  C   UNL     1      22.844 -40.905   7.363  0.00  0.00    +0.000 A 
ATOM     16 CL   UNL     1      23.289 -41.893   5.977  0.00  0.00    +0.000 Cl
ENDBRANCH   8   9
BRANCH   6  17
ATOM     17  N   UNL     1      25.044 -44.855  10.956  0.00  0.00    +0.000 N 
ATOM     18  H   UNL     1      25.844 -44.228  10.824  0.00  0.00    +0.000 HD
ATOM     19  H   UNL     1      25.098 -45.658  11.609  0.00  0.00    +0.000 HD
ENDBRANCH   6  17
BRANCH   7  20
ATOM     20  C   UNL     1      25.055 -42.517   9.716  0.00  0.00    +0.000 C 
ATOM     21  N   UNL     1      25.986 -41.792   9.871  0.00  0.00    +0.000 NA
ENDBRANCH   7  20
BRANCH   4  22
ATOM     22  C   UNL     1      20.556 -46.001   9.431  0.00  0.00    +0.000 C 
BRANCH  22  23
ATOM     23  O   UNL     1      20.374 -46.754   8.340  0.00  0.00    +0.000 OA
ATOM     24  C   UNL     1      18.916 -46.758   8.157  0.00  0.00    +0.000 C 
ENDBRANCH  22  23
ENDBRANCH   4  22
ENDBRANCH   1   3
BRANCH   1  25
ATOM     25  O   UNL     1      19.293 -42.789   8.325  0.00  0.00    +0.000 OA
BRANCH  25  26
ATOM     26  C   UNL     1      17.963 -42.933   8.012  0.00  0.00    +0.000 C 
BRANCH  26  27
ATOM     27  N   UNL     1      17.343 -41.640   8.443  0.00  0.00    +0.000 N 
ATOM     28  C   UNL     1      18.182 -40.506   8.408  0.00  0.00    +0.000 C 
ATOM     29  N   UNL     1      18.901 -40.142   7.382  0.00  0.00    +0.000 NA
ATOM     30  N   UNL     1      18.226 -39.562   9.483  0.00  0.00    +0.000 N 
ATOM     31  C   UNL     1      16.007 -41.517   8.871  0.00  0.00    +0.000 C 
ATOM     32  N   UNL     1      15.079 -41.296   7.971  0.00  0.00    +0.000 NA
ATOM     33  N   UNL     1      15.656 -41.606  10.220  0.00  0.00    +0.000 N 
ATOM     34  H   UNL     1      19.513 -39.318   7.347  0.00  0.00    +0.000 HD
ATOM     35  H   UNL     1      17.836 -39.819  10.430  0.00  0.00    +0.000 HD
ATOM     36  H   UNL     1      14.099 -41.208   8.269  0.00  0.00    +0.000 HD
ATOM     37  H   UNL     1      15.339 -40.761  10.736  0.00  0.00    +0.000 HD
ATOM     38  H   UNL     1      15.684 -42.505  10.776  0.00  0.00    +0.000 HD
BRANCH  30  39
ATOM     39  C   UNL     1      18.789 -38.246   9.359  0.00  0.00    +0.000 C 
BRANCH  39  40
ATOM     40  C   UNL     1      17.777 -37.232   9.839  0.00  0.00    +0.000 A 
ATOM     41  C   UNL     1      17.812 -35.929   9.408  0.00  0.00    +0.000 A 
ATOM     42  C   UNL     1      16.976 -34.956   9.929  0.00  0.00    +0.000 A 
ATOM     43  C   UNL     1      16.069 -35.331  10.929  0.00  0.00    +0.000 A 
ATOM     44  C   UNL     1      16.005 -36.592  11.359  0.00  0.00    +0.000 A 
ATOM     45  C   UNL     1      16.872 -37.580  10.819  0.00  0.00    +0.000 A 
ATOM     46 CL   UNL     1      17.046 -33.307   9.356  0.00  0.00    +0.000 Cl
BRANCH  43  47
ATOM     47  O   UNL     1      15.304 -34.260  11.388  0.00  0.00    +0.000 OA
ATOM     48  C   UNL     1      13.904 -34.386  11.443  0.00  0.00    +0.000 C 
ENDBRANCH  43  47
ENDBRANCH  39  40
ENDBRANCH  30  39
ENDBRANCH  26  27
ENDBRANCH  25  26
ENDBRANCH   1  25
TORSDOF 12
ENDMDL
