MODEL 1
REMARK VINA RESULT:    -9.831      0.000      0.000
REMARK INTER + INTRA:         -20.933
REMARK INTER:                 -17.303
REMARK INTRA:                  -3.631
REMARK UNBOUND:                -3.631
REMARK  Name = 
REMARK  19 active torsions:
REMARK  status: ('A' for Active; 'I' for Inactive)
REMARK    1  A    between atoms: C_1  and  C_14
REMARK    2  A    between atoms: C_2  and  O_3
REMARK    3  A    between atoms: O_3  and  C_4
REMARK    4  A    between atoms: C_4  and  C_5
REMARK    5  A    between atoms: C_5  and  O_6
REMARK    6  A    between atoms: C_5  and  C_7
REMARK    7  A    between atoms: C_7  and  N_8
REMARK    8  A    between atoms: C_11  and  C_13
REMARK    9  A    between atoms: C_14  and  N_15
REMARK   10  A    between atoms: C_16  and  C_46
REMARK   11  A    between atoms: C_16  and  C_47
REMARK   12  A    between atoms: C_18  and  C_23
REMARK   13  A    between atoms: C_20  and  C_21
REMARK   14  A    between atoms: C_20  and  C_22
REMARK   15  A    between atoms: C_23  and  C_24
REMARK   16  A    between atoms: C_24  and  O_26
REMARK   17  A    between atoms: O_26  and  N_27
REMARK   18  A    between atoms: C_30  and  C_31
REMARK   19  A    between atoms: C_31  and  C_32
REMARK                            x       y       z     vdW  Elec       q    Type
REMARK                         _______ _______ _______ _____ _____    ______ ____
ROOT
ATOM      1  N   UNL     1      21.297 -45.397   7.157  0.00  0.00    +0.000 NA
ATOM      2  C   UNL     1      22.349 -44.837   6.284  0.00  0.00    +0.000 C 
ATOM      3  C   UNL     1      23.057 -43.716   6.845  0.00  0.00    +0.000 C 
ATOM      4  C   UNL     1      23.013 -43.394   8.114  0.00  0.00    +0.000 C 
ATOM      5  C   UNL     1      22.235 -44.188   9.058  0.00  0.00    +0.000 C 
ATOM      6  C   UNL     1      21.783 -45.539   8.427  0.00  0.00    +0.000 C 
ATOM      7  C   UNL     1      20.900 -46.133   9.510  0.00  0.00    +0.000 C 
ATOM      8  C   UNL     1      22.990 -46.527   8.492  0.00  0.00    +0.000 C 
ATOM      9  C   UNL     1      23.143 -45.930   5.696  0.00  0.00    +0.000 C 
ATOM     10  C   UNL     1      21.711 -44.111   5.050  0.00  0.00    +0.000 C 
ENDROOT
BRANCH   1  11
ATOM     11  C   UNL     1      20.058 -45.173   6.637  0.00  0.00    +0.000 C 
BRANCH  11  12
ATOM     12  C   UNL     1      18.945 -44.605   7.384  0.00  0.00    +0.000 A 
ATOM     13  C   UNL     1      17.939 -45.626   7.688  0.00  0.00    +0.000 A 
ATOM     14  C   UNL     1      16.783 -45.296   8.312  0.00  0.00    +0.000 A 
ATOM     15  C   UNL     1      16.518 -44.010   8.679  0.00  0.00    +0.000 A 
ATOM     16  C   UNL     1      17.441 -43.036   8.413  0.00  0.00    +0.000 A 
ATOM     17  C   UNL     1      18.646 -43.361   7.761  0.00  0.00    +0.000 A 
ATOM     18  C   UNL     1      17.185 -41.636   8.886  0.00  0.00    +0.000 C 
BRANCH  13  19
ATOM     19  O   UNL     1      18.210 -46.892   7.354  0.00  0.00    +0.000 OA
BRANCH  19  20
ATOM     20  C   UNL     1      18.348 -48.154   7.660  0.00  0.00    +0.000 C 
BRANCH  20  21
ATOM     21  C   UNL     1      19.384 -49.081   7.166  0.00  0.00    +0.000 C 
BRANCH  21  22
ATOM     22  O   UNL     1      19.121 -50.406   7.102  0.00  0.00    +0.000 OA
ATOM     23  H   UNL     1      18.175 -50.617   6.974  0.00  0.00    +0.000 HD
ENDBRANCH  21  22
BRANCH  21  24
ATOM     24  C   UNL     1      20.060 -48.612   5.884  0.00  0.00    +0.000 C 
BRANCH  24  25
ATOM     25  N   UNL     1      19.207 -47.970   4.956  0.00  0.00    +0.000 NA
ATOM     26  H   UNL     1      18.231 -47.814   5.217  0.00  0.00    +0.000 HD
ATOM     27  H   UNL     1      19.645 -47.159   4.496  0.00  0.00    +0.000 HD
ENDBRANCH  24  25
ENDBRANCH  21  24
ENDBRANCH  20  21
ENDBRANCH  19  20
ENDBRANCH  13  19
ENDBRANCH  11  12
ENDBRANCH   1  11
BRANCH   4  28
ATOM     28  C   UNL     1      23.619 -42.055   8.482  0.00  0.00    +0.000 C 
BRANCH  28  29
ATOM     29  C   UNL     1      22.562 -41.221   9.065  0.00  0.00    +0.000 C 
ATOM     30  O   UNL     1      22.764 -40.697  10.182  0.00  0.00    +0.000 OA
BRANCH  29  31
ATOM     31  O   UNL     1      21.374 -40.981   8.446  0.00  0.00    +0.000 OA
BRANCH  31  32
ATOM     32  N   UNL     1      20.769 -39.987   7.958  0.00  0.00    +0.000 NA
ATOM     33  C   UNL     1      21.555 -38.741   7.901  0.00  0.00    +0.000 C 
ATOM     34  C   UNL     1      20.835 -37.823   8.811  0.00  0.00    +0.000 C 
ATOM     35  C   UNL     1      19.384 -38.001   8.702  0.00  0.00    +0.000 C 
ATOM     36  C   UNL     1      18.998 -38.558   7.337  0.00  0.00    +0.000 C 
ATOM     37  C   UNL     1      19.820 -39.814   6.975  0.00  0.00    +0.000 C 
ATOM     38  C   UNL     1      20.694 -39.367   5.776  0.00  0.00    +0.000 C 
ATOM     39  C   UNL     1      21.538 -38.304   6.488  0.00  0.00    +0.000 C 
BRANCH  35  40
ATOM     40  C   UNL     1      18.775 -38.836   9.851  0.00  0.00    +0.000 C 
BRANCH  40  41
ATOM     41  C   UNL     1      17.670 -37.791  10.239  0.00  0.00    +0.000 A 
ATOM     42  C   UNL     1      16.443 -38.490  10.406  0.00  0.00    +0.000 A 
ATOM     43  C   UNL     1      15.450 -37.890  11.133  0.00  0.00    +0.000 A 
ATOM     44  C   UNL     1      15.619 -36.656  11.691  0.00  0.00    +0.000 A 
ATOM     45  C   UNL     1      16.823 -35.997  11.496  0.00  0.00    +0.000 A 
ATOM     46  C   UNL     1      17.872 -36.601  10.738  0.00  0.00    +0.000 A 
ATOM     47  C   UNL     1      14.637 -36.151  12.546  0.00  0.00    +0.000 A 
ATOM     48  C   UNL     1      13.509 -36.888  12.820  0.00  0.00    +0.000 A 
ATOM     49  N   UNL     1      13.363 -38.117  12.237  0.00  0.00    +0.000 NA
ATOM     50  C   UNL     1      14.289 -38.605  11.429  0.00  0.00    +0.000 A 
ENDBRANCH  40  41
ENDBRANCH  35  40
ENDBRANCH  31  32
ENDBRANCH  29  31
ENDBRANCH  28  29
ENDBRANCH   4  28
TORSDOF 14
ENDMDL
