MODEL 1
REMARK VINA RESULT:    -8.319      0.000      0.000
REMARK INTER + INTRA:         -18.847
REMARK INTER:                 -15.858
REMARK INTRA:                  -2.990
REMARK UNBOUND:                -2.990
REMARK  Name = 
REMARK  18 active torsions:
REMARK  status: ('A' for Active; 'I' for Inactive)
REMARK    1  A    between atoms: N_1  and  C_18
REMARK    2  A    between atoms: C_5  and  N_8
REMARK    3  A    between atoms: N_8  and  C_9
REMARK    4  A    between atoms: C_11  and  C_12
REMARK    5  A    between atoms: C_12  and  O_14
REMARK    6  A    between atoms: C_18  and  C_19
REMARK    7  A    between atoms: C_19  and  C_20
REMARK    8  A    between atoms: C_20  and  O_22
REMARK    9  A    between atoms: O_22  and  N_23
REMARK   10  A    between atoms: N_23  and  C_38
REMARK   11  A    between atoms: C_24  and  C_26
REMARK   12  A    between atoms: C_26  and  O_27
REMARK   13  A    between atoms: O_27  and  C_28
REMARK   14  A    between atoms: C_29  and  O_36
REMARK   15  A    between atoms: C_31  and  C_32
REMARK   16  A    between atoms: O_36  and  C_37
REMARK   17  A    between atoms: C_39  and  O_40
REMARK   18  A    between atoms: O_40  and  C_41
REMARK                            x       y       z     vdW  Elec       q    Type
REMARK                         _______ _______ _______ _____ _____    ______ ____
ROOT
ATOM      1  O   UNL     1      14.921 -40.888   9.587  0.00  0.00    +0.000 OA
ENDROOT
BRANCH   1   2
ATOM      2  N   UNL     1      14.561 -42.166   9.318  0.00  0.00    +0.000 N 
ATOM      3  C   UNL     1      15.518 -43.122   8.953  0.00  0.00    +0.000 C 
ATOM      4  O   UNL     1      15.147 -44.334   8.837  0.00  0.00    +0.000 OA
BRANCH   2   5
ATOM      5  C   UNL     1      13.204 -42.621   9.379  0.00  0.00    +0.000 A 
ATOM      6  C   UNL     1      12.662 -42.831  10.640  0.00  0.00    +0.000 A 
ATOM      7  C   UNL     1      11.326 -43.210  10.703  0.00  0.00    +0.000 A 
ATOM      8  C   UNL     1      10.555 -43.377   9.583  0.00  0.00    +0.000 A 
ATOM      9  C   UNL     1      11.113 -43.164   8.344  0.00  0.00    +0.000 A 
ATOM     10  C   UNL     1      12.443 -42.786   8.258  0.00  0.00    +0.000 A 
BRANCH   6  11
ATOM     11  O   UNL     1      13.456 -42.664  11.708  0.00  0.00    +0.000 OA
ATOM     12  C   UNL     1      13.365 -41.841  12.819  0.00  0.00    +0.000 C 
ENDBRANCH   6  11
ENDBRANCH   2   5
BRANCH   3  13
ATOM     13  C   UNL     1      16.924 -42.800   8.692  0.00  0.00    +0.000 C 
BRANCH  13  14
ATOM     14  O   UNL     1      17.672 -43.948   8.340  0.00  0.00    +0.000 OA
BRANCH  14  15
ATOM     15  C   UNL     1      18.838 -43.865   7.616  0.00  0.00    +0.000 A 
ATOM     16  C   UNL     1      19.213 -44.948   6.801  0.00  0.00    +0.000 A 
ATOM     17  C   UNL     1      20.359 -44.933   6.048  0.00  0.00    +0.000 A 
ATOM     18  C   UNL     1      21.207 -43.848   6.050  0.00  0.00    +0.000 A 
ATOM     19  C   UNL     1      20.859 -42.779   6.839  0.00  0.00    +0.000 A 
ATOM     20  C   UNL     1      19.702 -42.792   7.603  0.00  0.00    +0.000 A 
BRANCH  16  21
ATOM     21  O   UNL     1      18.359 -46.027   6.804  0.00  0.00    +0.000 OA
ATOM     22  C   UNL     1      18.697 -47.375   6.852  0.00  0.00    +0.000 C 
ENDBRANCH  16  21
BRANCH  18  23
ATOM     23  C   UNL     1      22.408 -43.871   5.229  0.00  0.00    +0.000 C 
ATOM     24  O   UNL     1      22.382 -43.420   4.049  0.00  0.00    +0.000 OA
ENDBRANCH  18  23
ENDBRANCH  14  15
ENDBRANCH  13  14
ENDBRANCH   3  13
ENDBRANCH   1   2
BRANCH   1  25
ATOM     25  C   UNL     1      14.698 -39.781   8.754  0.00  0.00    +0.000 C 
ATOM     26  O   UNL     1      14.641 -40.016   7.546  0.00  0.00    +0.000 OA
BRANCH  25  27
ATOM     27  C   UNL     1      14.562 -38.496   9.443  0.00  0.00    +0.000 C 
BRANCH  27  28
ATOM     28  C   UNL     1      15.332 -38.405  10.712  0.00  0.00    +0.000 C 
BRANCH  28  29
ATOM     29  N   UNL     1      16.662 -37.854  10.627  0.00  0.00    +0.000 N 
ATOM     30  C   UNL     1      16.999 -36.562  11.104  0.00  0.00    +0.000 C 
ATOM     31  O   UNL     1      16.496 -35.901  12.032  0.00  0.00    +0.000 OA
ATOM     32  S   UNL     1      18.352 -36.036  10.077  0.00  0.00    +0.000 S 
ATOM     33  C   UNL     1      18.725 -37.677   9.347  0.00  0.00    +0.000 C 
ATOM     34  C   UNL     1      17.757 -38.538  10.066  0.00  0.00    +0.000 C 
ATOM     35  O   UNL     1      17.946 -39.809  10.147  0.00  0.00    +0.000 OA
BRANCH  33  36
ATOM     36  N   UNL     1      20.075 -38.041   9.734  0.00  0.00    +0.000 N 
ATOM     37  H   UNL     1      20.386 -37.876  10.705  0.00  0.00    +0.000 HD
BRANCH  36  38
ATOM     38  C   UNL     1      20.976 -38.619   8.814  0.00  0.00    +0.000 A 
ATOM     39  C   UNL     1      21.947 -39.536   9.187  0.00  0.00    +0.000 A 
ATOM     40  C   UNL     1      22.823 -40.082   8.279  0.00  0.00    +0.000 A 
ATOM     41  C   UNL     1      22.751 -39.721   6.951  0.00  0.00    +0.000 A 
ATOM     42  C   UNL     1      21.795 -38.805   6.530  0.00  0.00    +0.000 A 
ATOM     43  C   UNL     1      20.931 -38.279   7.482  0.00  0.00    +0.000 A 
BRANCH  40  44
ATOM     44  C   UNL     1      23.844 -41.053   8.658  0.00  0.00    +0.000 C 
ATOM     45  O   UNL     1      24.091 -42.074   7.971  0.00  0.00    +0.000 OA
BRANCH  44  46
ATOM     46  O   UNL     1      24.588 -40.866   9.820  0.00  0.00    +0.000 OA
ATOM     47  H   UNL     1      24.245 -40.322  10.603  0.00  0.00    +0.000 HD
ENDBRANCH  44  46
ENDBRANCH  40  44
ENDBRANCH  36  38
ENDBRANCH  33  36
ENDBRANCH  28  29
ENDBRANCH  27  28
ENDBRANCH  25  27
ENDBRANCH   1  25
TORSDOF 16
ENDMDL
