MODEL 1
REMARK VINA RESULT:    -9.877      0.000      0.000
REMARK INTER + INTRA:         -16.102
REMARK INTER:                 -14.785
REMARK INTRA:                  -1.317
REMARK UNBOUND:                -1.317
REMARK  Name = 
REMARK  10 active torsions:
REMARK  status: ('A' for Active; 'I' for Inactive)
REMARK    1  A    between atoms: N_3  and  C_8
REMARK    2  A    between atoms: N_6  and  N_7
REMARK    3  A    between atoms: C_8  and  C_9
REMARK    4  A    between atoms: N_21  and  C_22
REMARK    5  A    between atoms: C_22  and  N_23
REMARK    6  A    between atoms: N_23  and  C_24
REMARK    7  A    between atoms: N_23  and  C_33
REMARK    8  A    between atoms: C_24  and  C_25
REMARK    9  A    between atoms: C_27  and  O_28
REMARK   10  A    between atoms: O_28  and  C_29
REMARK                            x       y       z     vdW  Elec       q    Type
REMARK                         _______ _______ _______ _____ _____    ______ ____
ROOT
ATOM      1  C   UNL     1      16.156 -41.405   8.019  0.00  0.00    +0.000 A 
ATOM      2  C   UNL     1      15.659 -42.622   8.477  0.00  0.00    +0.000 A 
ATOM      3  N   UNL     1      14.324 -42.507   8.639  0.00  0.00    +0.000 N 
ATOM      4  C   UNL     1      13.979 -41.238   8.291  0.00  0.00    +0.000 A 
ATOM      5  N   UNL     1      15.087 -40.571   7.915  0.00  0.00    +0.000 NA
ATOM      6  N   UNL     1      12.683 -40.663   8.298  0.00  0.00    +0.000 N 
ATOM      7  C   UNL     1      16.621 -43.602   8.658  0.00  0.00    +0.000 A 
ATOM      8  O   UNL     1      16.211 -44.731   9.086  0.00  0.00    +0.000 OA
ATOM      9  N   UNL     1      17.926 -43.414   8.413  0.00  0.00    +0.000 N 
ATOM     10  C   UNL     1      18.362 -42.231   7.971  0.00  0.00    +0.000 A 
ATOM     11  O   UNL     1      19.606 -42.038   7.730  0.00  0.00    +0.000 OA
ATOM     12  N   UNL     1      17.467 -41.254   7.784  0.00  0.00    +0.000 N 
ATOM     13  H   UNL     1      12.300 -40.344   9.211  0.00  0.00    +0.000 HD
ATOM     14  H   UNL     1      18.591 -44.192   8.570  0.00  0.00    +0.000 HD
ENDROOT
BRANCH   6  15
ATOM     15  N   UNL     1      11.882 -40.495   7.167  0.00  0.00    +0.000 NA
ATOM     16  H   UNL     1      11.231 -39.676   7.330  0.00  0.00    +0.000 HD
ATOM     17  H   UNL     1      11.230 -41.308   7.017  0.00  0.00    +0.000 HD
ENDBRANCH   6  15
BRANCH   3  18
ATOM     18  C   UNL     1      13.453 -43.570   9.075  0.00  0.00    +0.000 C 
BRANCH  18  19
ATOM     19  C   UNL     1      12.649 -43.315  10.253  0.00  0.00    +0.000 A 
ATOM     20  C   UNL     1      13.284 -43.269  11.476  0.00  0.00    +0.000 A 
ATOM     21  C   UNL     1      12.617 -43.036  12.670  0.00  0.00    +0.000 A 
ATOM     22  C   UNL     1      11.254 -42.850  12.567  0.00  0.00    +0.000 A 
ATOM     23 CL   UNL     1      10.321 -42.550  14.036  0.00  0.00    +0.000 Cl
ATOM     24  C   UNL     1      10.584 -42.890  11.375  0.00  0.00    +0.000 A 
ATOM     25  C   UNL     1      11.308 -43.126  10.209  0.00  0.00    +0.000 A 
ENDBRANCH  18  19
ENDBRANCH   3  18
BRANCH  12  26
ATOM     26  C   UNL     1      17.924 -39.974   7.306  0.00  0.00    +0.000 C 
BRANCH  26  27
ATOM     27  N   UNL     1      18.621 -39.155   8.161  0.00  0.00    +0.000 NA
BRANCH  27  28
ATOM     28  C   UNL     1      19.817 -38.511   7.905  0.00  0.00    +0.000 C 
ATOM     29  C   UNL     1      21.014 -38.875   8.736  0.00  0.00    +0.000 C 
ATOM     30  C   UNL     1      22.130 -38.093   8.026  0.00  0.00    +0.000 C 
ATOM     31  C   UNL     1      21.725 -37.994   6.595  0.00  0.00    +0.000 C 
ATOM     32  C   UNL     1      20.340 -38.647   6.487  0.00  0.00    +0.000 C 
ENDBRANCH  27  28
BRANCH  27  33
ATOM     33  C   UNL     1      18.358 -39.415   9.535  0.00  0.00    +0.000 C 
BRANCH  33  34
ATOM     34  C   UNL     1      17.632 -38.298  10.215  0.00  0.00    +0.000 A 
ATOM     35  C   UNL     1      16.336 -38.478  10.621  0.00  0.00    +0.000 A 
ATOM     36  C   UNL     1      15.576 -37.504  11.249  0.00  0.00    +0.000 A 
ATOM     37  C   UNL     1      16.234 -36.291  11.448  0.00  0.00    +0.000 A 
ATOM     38  C   UNL     1      17.535 -36.091  11.047  0.00  0.00    +0.000 A 
ATOM     39  C   UNL     1      18.250 -37.089  10.427  0.00  0.00    +0.000 A 
BRANCH  36  40
ATOM     40  O   UNL     1      14.277 -37.731  11.640  0.00  0.00    +0.000 OA
ATOM     41  C   UNL     1      13.517 -36.964  12.512  0.00  0.00    +0.000 C 
ENDBRANCH  36  40
ENDBRANCH  33  34
ENDBRANCH  27  33
ENDBRANCH  26  27
ENDBRANCH  12  26
TORSDOF 9
ENDMDL
