MODEL 1
REMARK VINA RESULT:    -9.208      0.000      0.000
REMARK INTER + INTRA:         -10.632
REMARK INTER:                 -10.553
REMARK INTRA:                  -0.078
REMARK UNBOUND:                -0.078
REMARK  Name = 
REMARK  4 active torsions:
REMARK  status: ('A' for Active; 'I' for Inactive)
REMARK    1  A    between atoms: C_2  and  O_42
REMARK    2  A    between atoms: C_13  and  C_14
REMARK    3  A    between atoms: C_14  and  N_15
REMARK    4  A    between atoms: C_40  and  O_41
REMARK                            x       y       z     vdW  Elec       q    Type
REMARK                         _______ _______ _______ _____ _____    ______ ____
ROOT
ATOM      1  N   UNL     1      23.667 -42.220   8.326  0.00  0.00    +0.000 NA
ATOM      2  C   UNL     1      24.328 -42.075   9.464  0.00  0.00    +0.000 C 
ATOM      3  C   UNL     1      23.209 -42.339  10.389  0.00  0.00    +0.000 C 
ATOM      4  N   UNL     1      22.048 -41.724   9.768  0.00  0.00    +0.000 NA
ATOM      5  C   UNL     1      21.160 -41.203   9.355  0.00  0.00    +0.000 C 
ATOM      6  C   UNL     1      20.428 -41.950   7.651  0.00  0.00    +0.000 C 
ATOM      7  C   UNL     1      20.977 -41.181   6.878  0.00  0.00    +0.000 C 
ATOM      8  N   UNL     1      22.256 -41.096   7.248  0.00  0.00    +0.000 N 
ATOM      9  C   UNL     1      22.427 -42.480   7.833  0.00  0.00    +0.000 C 
ATOM     10  C   UNL     1      21.294 -43.255   8.518  0.00  0.00    +0.000 C 
ATOM     11  C   UNL     1      19.896 -42.861   8.543  0.00  0.00    +0.000 C 
ATOM     12  C   UNL     1      18.503 -42.594   8.665  0.00  0.00    +0.000 C 
ATOM     13  C   UNL     1      17.567 -41.595   8.581  0.00  0.00    +0.000 C 
ATOM     14  C   UNL     1      17.769 -40.108   8.314  0.00  0.00    +0.000 C 
ATOM     15  C   UNL     1      18.601 -39.095   8.177  0.00  0.00    +0.000 C 
ATOM     16  C   UNL     1      19.950 -38.666   8.182  0.00  0.00    +0.000 C 
ATOM     17  C   UNL     1      21.627 -44.550   9.061  0.00  0.00    +0.000 C 
ATOM     18  C   UNL     1      22.156 -45.740   8.908  0.00  0.00    +0.000 C 
ATOM     19  C   UNL     1      22.804 -46.484   7.876  0.00  0.00    +0.000 C 
ATOM     20  N   UNL     1      24.042 -46.556   7.501  0.00  0.00    +0.000 NA
ATOM     21  C   UNL     1      22.722 -43.333   6.627  0.00  0.00    +0.000 C 
ATOM     22  O   UNL     1      21.624 -43.792   6.081  0.00  0.00    +0.000 OA
ATOM     23  N   UNL     1      23.962 -43.678   6.075  0.00  0.00    +0.000 N 
ATOM     24  C   UNL     1      25.234 -43.906   6.645  0.00  0.00    +0.000 C 
ATOM     25  C   UNL     1      25.801 -45.290   6.614  0.00  0.00    +0.000 C 
ATOM     26  C   UNL     1      25.260 -46.007   7.870  0.00  0.00    +0.000 C 
ATOM     27  C   UNL     1      25.992 -46.081   8.979  0.00  0.00    +0.000 C 
ATOM     28  C   UNL     1      27.209 -45.551   9.423  0.00  0.00    +0.000 C 
ATOM     29  F   UNL     1      28.247 -46.679   9.118  0.00  0.00    +0.000 F 
ATOM     30  C   UNL     1      27.986 -44.746  10.053  0.00  0.00    +0.000 C 
ATOM     31  C   UNL     1      27.496 -43.595  10.927  0.00  0.00    +0.000 C 
ATOM     32  C   UNL     1      26.516 -43.441  11.726  0.00  0.00    +0.000 C 
ATOM     33  C   UNL     1      22.798 -39.816   7.001  0.00  0.00    +0.000 C 
ATOM     34  C   UNL     1      22.427 -38.522   7.402  0.00  0.00    +0.000 C 
ATOM     35  C   UNL     1      21.211 -38.195   8.274  0.00  0.00    +0.000 C 
ATOM     36  C   UNL     1      23.197 -43.101  11.439  0.00  0.00    +0.000 C 
ATOM     37  N   UNL     1      24.116 -43.909  12.061  0.00  0.00    +0.000 NA
ATOM     38  C   UNL     1      25.347 -44.174  12.271  0.00  0.00    +0.000 C 
ATOM     39  H   UNL     1      23.932 -43.788   4.995  0.00  0.00    +0.000 HD
ENDROOT
BRANCH  38  40
ATOM     40  O   UNL     1      25.604 -45.286  13.135  0.00  0.00    +0.000 OA
ATOM     41  H   UNL     1      25.146 -45.378  14.048  0.00  0.00    +0.000 HD
ENDBRANCH  38  40
BRANCH   2  42
ATOM     42  O   UNL     1      25.629 -41.751   9.428  0.00  0.00    +0.000 OA
ATOM     43  H   UNL     1      25.931 -40.743   9.463  0.00  0.00    +0.000 HD
ENDBRANCH   2  42
BRANCH  13  44
ATOM     44  C   UNL     1      16.193 -42.085   8.846  0.00  0.00    +0.000 C 
BRANCH  44  45
ATOM     45  N   UNL     1      15.434 -41.956   7.614  0.00  0.00    +0.000 NA
ATOM     46  H   UNL     1      15.525 -42.810   7.041  0.00  0.00    +0.000 HD
ATOM     47  H   UNL     1      15.674 -41.068   7.098  0.00  0.00    +0.000 HD
ENDBRANCH  44  45
ENDBRANCH  13  44
TORSDOF 4
ENDMDL
