MODEL 1
REMARK VINA RESULT:    -8.163      0.000      0.000
REMARK INTER + INTRA:         -18.545
REMARK INTER:                 -15.082
REMARK INTRA:                  -3.463
REMARK UNBOUND:                -3.463
REMARK  Name = 
REMARK  17 active torsions:
REMARK  status: ('A' for Active; 'I' for Inactive)
REMARK    1  A    between atoms: C_1  and  C_28
REMARK    2  A    between atoms: C_2  and  C_22
REMARK    3  A    between atoms: C_7  and  C_8
REMARK    4  A    between atoms: C_11  and  O_16
REMARK    5  A    between atoms: C_12  and  O_14
REMARK    6  A    between atoms: O_14  and  C_15
REMARK    7  A    between atoms: O_16  and  C_17
REMARK    8  A    between atoms: C_17  and  C_18
REMARK    9  A    between atoms: C_18  and  O_20
REMARK   10  A    between atoms: C_28  and  C_30
REMARK   11  A    between atoms: C_30  and  C_31
REMARK   12  A    between atoms: C_31  and  C_32
REMARK   13  A    between atoms: C_31  and  C_36
REMARK   14  A    between atoms: C_32  and  O_34
REMARK   15  A    between atoms: O_34  and  C_35
REMARK   16  A    between atoms: C_36  and  C_38
REMARK   17  A    between atoms: C_38  and  C_39
REMARK                            x       y       z     vdW  Elec       q    Type
REMARK                         _______ _______ _______ _____ _____    ______ ____
ROOT
ATOM      1  C   UNL     1      21.214 -43.614   6.744  0.00  0.00    +0.000 C 
ATOM      2  C   UNL     1      22.341 -42.989   6.527  0.00  0.00    +0.000 C 
ATOM      3  N   UNL     1      22.769 -42.789   5.168  0.00  0.00    +0.000 N 
ATOM      4  C   UNL     1      21.997 -43.221   4.067  0.00  0.00    +0.000 C 
ATOM      5  O   UNL     1      22.384 -43.053   2.866  0.00  0.00    +0.000 OA
ATOM      6  N   UNL     1      20.771 -43.848   4.367  0.00  0.00    +0.000 N 
ATOM      7  C   UNL     1      20.470 -44.317   5.669  0.00  0.00    +0.000 C 
ATOM      8  H   UNL     1      23.674 -42.312   4.966  0.00  0.00    +0.000 HD
ATOM      9  H   UNL     1      20.073 -43.958   3.579  0.00  0.00    +0.000 HD
ENDROOT
BRANCH   7  10
ATOM     10  C   UNL     1      20.824 -45.789   5.641  0.00  0.00    +0.000 A 
ATOM     11  C   UNL     1      22.056 -46.285   5.384  0.00  0.00    +0.000 A 
ATOM     12  C   UNL     1      22.267 -47.660   5.379  0.00  0.00    +0.000 A 
ATOM     13  C   UNL     1      21.245 -48.553   5.631  0.00  0.00    +0.000 A 
ATOM     14  C   UNL     1      19.993 -48.045   5.893  0.00  0.00    +0.000 A 
ATOM     15  C   UNL     1      19.800 -46.680   5.894  0.00  0.00    +0.000 A 
ATOM     16 CL   UNL     1      23.871 -48.248   5.042  0.00  0.00    +0.000 Cl
BRANCH  14  17
ATOM     17  O   UNL     1      18.902 -48.875   6.158  0.00  0.00    +0.000 OA
ATOM     18  C   UNL     1      18.318 -48.950   7.443  0.00  0.00    +0.000 C 
ENDBRANCH  14  17
BRANCH  13  19
ATOM     19  O   UNL     1      21.438 -49.920   5.630  0.00  0.00    +0.000 OA
BRANCH  19  20
ATOM     20  C   UNL     1      22.105 -50.543   6.712  0.00  0.00    +0.000 C 
BRANCH  20  21
ATOM     21  C   UNL     1      21.338 -51.648   7.292  0.00  0.00    +0.000 C 
ATOM     22  O   UNL     1      21.927 -52.575   7.889  0.00  0.00    +0.000 OA
BRANCH  21  23
ATOM     23  O   UNL     1      19.961 -51.692   7.193  0.00  0.00    +0.000 OA
ATOM     24  H   UNL     1      19.374 -52.334   7.698  0.00  0.00    +0.000 HD
ENDBRANCH  21  23
ENDBRANCH  20  21
ENDBRANCH  19  20
ENDBRANCH  13  19
ENDBRANCH   7  10
BRANCH   2  25
ATOM     25  C   UNL     1      23.240 -42.529   7.553  0.00  0.00    +0.000 A 
ATOM     26  C   UNL     1      24.190 -43.358   8.091  0.00  0.00    +0.000 A 
ATOM     27  C   UNL     1      25.010 -42.850   9.092  0.00  0.00    +0.000 A 
ATOM     28  C   UNL     1      24.874 -41.552   9.533  0.00  0.00    +0.000 A 
ATOM     29  C   UNL     1      23.918 -40.706   8.997  0.00  0.00    +0.000 A 
ATOM     30  C   UNL     1      23.110 -41.206   8.011  0.00  0.00    +0.000 A 
ENDBRANCH   2  25
BRANCH   1  31
ATOM     31  C   UNL     1      20.689 -43.830   8.103  0.00  0.00    +0.000 C 
ATOM     32  O   UNL     1      20.971 -44.863   8.704  0.00  0.00    +0.000 OA
BRANCH  31  33
ATOM     33  C   UNL     1      19.845 -42.820   8.733  0.00  0.00    +0.000 C 
BRANCH  33  34
ATOM     34  C   UNL     1      18.623 -42.565   7.848  0.00  0.00    +0.000 C 
BRANCH  34  35
ATOM     35  C   UNL     1      17.564 -43.528   8.235  0.00  0.00    +0.000 C 
ATOM     36  O   UNL     1      16.656 -43.217   9.079  0.00  0.00    +0.000 OA
BRANCH  35  37
ATOM     37  O   UNL     1      17.526 -44.791   7.695  0.00  0.00    +0.000 OA
ATOM     38  C   UNL     1      16.728 -45.793   8.307  0.00  0.00    +0.000 C 
ENDBRANCH  35  37
ENDBRANCH  34  35
BRANCH  34  39
ATOM     39  C   UNL     1      18.195 -41.150   7.945  0.00  0.00    +0.000 C 
ATOM     40  O   UNL     1      17.243 -40.762   7.310  0.00  0.00    +0.000 OA
BRANCH  39  41
ATOM     41  C   UNL     1      18.935 -40.224   8.819  0.00  0.00    +0.000 C 
BRANCH  41  42
ATOM     42  C   UNL     1      19.925 -39.460   8.013  0.00  0.00    +0.000 A 
ATOM     43  C   UNL     1      20.668 -38.458   8.600  0.00  0.00    +0.000 A 
ATOM     44  F   UNL     1      20.493 -38.180   9.894  0.00  0.00    +0.000 F 
ATOM     45  C   UNL     1      21.592 -37.750   7.835  0.00  0.00    +0.000 A 
ATOM     46  C   UNL     1      21.727 -38.089   6.489  0.00  0.00    +0.000 A 
ATOM     47  C   UNL     1      20.979 -39.092   5.917  0.00  0.00    +0.000 A 
ATOM     48  C   UNL     1      20.067 -39.789   6.678  0.00  0.00    +0.000 A 
ENDBRANCH  41  42
ENDBRANCH  39  41
ENDBRANCH  34  39
ENDBRANCH  33  34
ENDBRANCH  31  33
ENDBRANCH   1  31
TORSDOF 15
ENDMDL
