MODEL 1
REMARK VINA RESULT:    -9.630      0.000      0.000
REMARK INTER + INTRA:         -15.070
REMARK INTER:                 -14.134
REMARK INTRA:                  -0.936
REMARK UNBOUND:                -0.936
REMARK  Name = 
REMARK  11 active torsions:
REMARK  status: ('A' for Active; 'I' for Inactive)
REMARK    1  A    between atoms: C_1  and  C_29
REMARK    2  A    between atoms: C_2  and  O_3
REMARK    3  A    between atoms: O_3  and  C_4
REMARK    4  A    between atoms: C_4  and  C_5
REMARK    5  A    between atoms: C_5  and  N_6
REMARK    6  A    between atoms: C_12  and  O_13
REMARK    7  A    between atoms: O_13  and  C_14
REMARK    8  A    between atoms: C_27  and  C_28
REMARK    9  A    between atoms: C_29  and  C_30
REMARK   10  A    between atoms: C_30  and  C_33
REMARK   11  A    between atoms: C_34  and  N_35
REMARK                            x       y       z     vdW  Elec       q    Type
REMARK                         _______ _______ _______ _____ _____    ______ ____
ROOT
ATOM      1  C   UNL     1      15.958 -40.017  10.216  0.00  0.00    +0.000 C 
ATOM      2  C   UNL     1      16.899 -39.127   9.766  0.00  0.00    +0.000 C 
ATOM      3  C   UNL     1      17.938 -39.571   8.764  0.00  0.00    +0.000 C 
ATOM      4  N   UNL     1      17.869 -40.882   8.360  0.00  0.00    +0.000 N 
ATOM      5  C   UNL     1      16.879 -41.786   8.825  0.00  0.00    +0.000 C 
ATOM      6  C   UNL     1      15.918 -41.357   9.805  0.00  0.00    +0.000 C 
ATOM      7  C   UNL     1      15.151 -42.358  10.197  0.00  0.00    +0.000 C 
ATOM      8  C   UNL     1      15.145 -43.728   9.734  0.00  0.00    +0.000 C 
ATOM      9  C   UNL     1      15.831 -44.539   9.016  0.00  0.00    +0.000 C 
ATOM     10  C   UNL     1      16.971 -44.829   8.183  0.00  0.00    +0.000 C 
ATOM     11  C   UNL     1      18.107 -44.263   7.817  0.00  0.00    +0.000 C 
ATOM     12  C   UNL     1      18.676 -41.669   7.428  0.00  0.00    +0.000 C 
ATOM     13  C   UNL     1      18.912 -43.082   7.971  0.00  0.00    +0.000 C 
ATOM     14  C   UNL     1      20.114 -43.188   8.631  0.00  0.00    +0.000 C 
ATOM     15  C   UNL     1      21.006 -42.014   8.849  0.00  0.00    +0.000 C 
ATOM     16  C   UNL     1      20.903 -40.947   9.575  0.00  0.00    +0.000 C 
ATOM     17  C   UNL     1      21.768 -39.767   9.788  0.00  0.00    +0.000 C 
ATOM     18  C   UNL     1      21.901 -38.742   8.907  0.00  0.00    +0.000 C 
ATOM     19  C   UNL     1      18.772 -38.611   8.341  0.00  0.00    +0.000 C 
ATOM     20  C   UNL     1      19.879 -38.610   7.426  0.00  0.00    +0.000 C 
ATOM     21  C   UNL     1      21.196 -38.664   7.630  0.00  0.00    +0.000 C 
ATOM     22  C   UNL     1      22.069 -38.614   6.380  0.00  0.00    +0.000 C 
ENDROOT
BRANCH   8  23
ATOM     23  O   UNL     1      13.908 -44.292  10.337  0.00  0.00    +0.000 OA
ATOM     24  C   UNL     1      13.945 -44.488  11.739  0.00  0.00    +0.000 C 
ENDBRANCH   8  23
BRANCH   2  25
ATOM     25  O   UNL     1      16.790 -37.909  10.286  0.00  0.00    +0.000 OA
BRANCH  25  26
ATOM     26  C   UNL     1      17.277 -36.852  10.921  0.00  0.00    +0.000 C 
BRANCH  26  27
ATOM     27  C   UNL     1      16.250 -35.899  11.527  0.00  0.00    +0.000 C 
BRANCH  27  28
ATOM     28  N   UNL     1      16.517 -34.605  10.935  0.00  0.00    +0.000 NA
ATOM     29  H   UNL     1      17.492 -34.514  10.559  0.00  0.00    +0.000 HD
ATOM     30  H   UNL     1      15.849 -34.381  10.147  0.00  0.00    +0.000 HD
ENDBRANCH  27  28
ENDBRANCH  26  27
ENDBRANCH  25  26
ENDBRANCH   2  25
BRANCH   1  31
ATOM     31  C   UNL     1      14.947 -39.531  11.209  0.00  0.00    +0.000 C 
BRANCH  31  32
ATOM     32  C   UNL     1      13.582 -39.233  10.561  0.00  0.00    +0.000 C 
ATOM     33  C   UNL     1      13.341 -37.841  10.228  0.00  0.00    +0.000 C 
ATOM     34  C   UNL     1      12.783 -38.199  11.507  0.00  0.00    +0.000 C 
BRANCH  32  35
ATOM     35  C   UNL     1      12.672 -40.374  10.439  0.00  0.00    +0.000 A 
ATOM     36  C   UNL     1      12.304 -40.872   9.217  0.00  0.00    +0.000 A 
ATOM     37  C   UNL     1      11.362 -41.902   9.062  0.00  0.00    +0.000 A 
ATOM     38  C   UNL     1      10.774 -42.450  10.171  0.00  0.00    +0.000 A 
ATOM     39  C   UNL     1      11.120 -41.978  11.404  0.00  0.00    +0.000 A 
ATOM     40  C   UNL     1      12.066 -40.943  11.533  0.00  0.00    +0.000 A 
BRANCH  36  41
ATOM     41  N   UNL     1      12.895 -40.392   8.040  0.00  0.00    +0.000 N 
ATOM     42  H   UNL     1      13.777 -40.817   7.701  0.00  0.00    +0.000 HD
ATOM     43  H   UNL     1      12.461 -39.631   7.500  0.00  0.00    +0.000 HD
ENDBRANCH  36  41
ENDBRANCH  32  35
ENDBRANCH  31  32
ENDBRANCH   1  31
TORSDOF 9
ENDMDL
