MODEL 1
REMARK VINA RESULT:    -8.362      0.000      0.000
REMARK INTER + INTRA:         -14.703
REMARK INTER:                 -12.762
REMARK INTRA:                  -1.941
REMARK UNBOUND:                -1.941
REMARK  Name = 
REMARK  12 active torsions:
REMARK  status: ('A' for Active; 'I' for Inactive)
REMARK    1  A    between atoms: C_4  and  N_16
REMARK    2  A    between atoms: C_5  and  C_14
REMARK    3  A    between atoms: C_6  and  C_7
REMARK    4  A    between atoms: C_19  and  C_20
REMARK    5  A    between atoms: C_20  and  C_21
REMARK    6  A    between atoms: C_20  and  C_22
REMARK    7  A    between atoms: C_20  and  C_23
REMARK    8  A    between atoms: C_23  and  N_24
REMARK    9  A    between atoms: C_30  and  C_33
REMARK   10  A    between atoms: C_33  and  C_34
REMARK   11  A    between atoms: C_34  and  C_35
REMARK   12  A    between atoms: C_35  and  O_37
REMARK                            x       y       z     vdW  Elec       q    Type
REMARK                         _______ _______ _______ _____ _____    ______ ____
ROOT
ATOM      1  C   UNL     1      13.579 -40.363   9.990  0.00  0.00    +0.000 A 
ATOM      2  C   UNL     1      12.632 -41.290   9.602  0.00  0.00    +0.000 A 
ATOM      3  O   UNL     1      11.588 -41.713  10.411  0.00  0.00    +0.000 OA
ATOM      4  C   UNL     1      11.504 -41.170  11.692  0.00  0.00    +0.000 C 
ATOM      5  C   UNL     1      12.354 -40.306  12.112  0.00  0.00    +0.000 C 
ATOM      6  C   UNL     1      13.479 -39.800  11.320  0.00  0.00    +0.000 C 
ATOM      7  N   UNL     1      12.949 -41.669   8.332  0.00  0.00    +0.000 NA
ATOM      8  N   UNL     1      14.022 -41.031   7.949  0.00  0.00    +0.000 N 
ATOM      9  C   UNL     1      14.479 -40.196   8.926  0.00  0.00    +0.000 A 
ATOM     10  H   UNL     1      14.506 -41.130   7.002  0.00  0.00    +0.000 HD
ENDROOT
BRANCH   6  11
ATOM     11  C   UNL     1      13.568 -38.339  11.499  0.00  0.00    +0.000 A 
ATOM     12  C   UNL     1      14.610 -37.665  12.100  0.00  0.00    +0.000 A 
ATOM     13  C   UNL     1      14.651 -36.284  12.174  0.00  0.00    +0.000 A 
ATOM     14  C   UNL     1      13.632 -35.525  11.635  0.00  0.00    +0.000 A 
ATOM     15  C   UNL     1      12.583 -36.180  11.031  0.00  0.00    +0.000 A 
ATOM     16  C   UNL     1      12.574 -37.537  10.976  0.00  0.00    +0.000 A 
ATOM     17  F   UNL     1      13.672 -34.154  11.708  0.00  0.00    +0.000 F 
ENDBRANCH   6  11
BRANCH   4  18
ATOM     18  N   UNL     1      10.436 -41.582  12.577  0.00  0.00    +0.000 N 
ATOM     19  H   UNL     1      10.409 -42.633  12.732  0.00  0.00    +0.000 HD
ATOM     20  H   UNL     1       9.775 -40.931  13.010  0.00  0.00    +0.000 HD
ENDBRANCH   4  18
BRANCH   9  21
ATOM     21  C   UNL     1      15.692 -39.328   8.807  0.00  0.00    +0.000 C 
ATOM     22  C   UNL     1      15.403 -37.867   8.638  0.00  0.00    +0.000 C 
ATOM     23  C   UNL     1      16.269 -39.704   7.407  0.00  0.00    +0.000 C 
BRANCH  21  24
ATOM     24  C   UNL     1      16.717 -39.699   9.810  0.00  0.00    +0.000 C 
BRANCH  24  25
ATOM     25  N   UNL     1      18.017 -40.156   9.413  0.00  0.00    +0.000 N 
ATOM     26  C   UNL     1      18.254 -41.544   9.136  0.00  0.00    +0.000 C 
ATOM     27  O   UNL     1      17.331 -42.426   9.245  0.00  0.00    +0.000 OA
ATOM     28  N   UNL     1      19.547 -41.953   8.722  0.00  0.00    +0.000 N 
ATOM     29  C   UNL     1      20.599 -40.980   8.591  0.00  0.00    +0.000 C 
ATOM     30  O   UNL     1      21.757 -41.358   8.767  0.00  0.00    +0.000 OA
ATOM     31  C   UNL     1      20.175 -39.617   8.255  0.00  0.00    +0.000 C 
ATOM     32  C   UNL     1      19.103 -39.259   9.248  0.00  0.00    +0.000 C 
ATOM     33  O   UNL     1      19.168 -38.210   9.898  0.00  0.00    +0.000 OA
ATOM     34  H   UNL     1      19.768 -42.960   8.511  0.00  0.00    +0.000 HD
BRANCH  31  35
ATOM     35  C   UNL     1      21.222 -38.574   8.216  0.00  0.00    +0.000 C 
BRANCH  35  36
ATOM     36  C   UNL     1      21.492 -38.134   6.806  0.00  0.00    +0.000 C 
BRANCH  36  37
ATOM     37  C   UNL     1      21.863 -39.278   5.931  0.00  0.00    +0.000 C 
ATOM     38  O   UNL     1      22.992 -39.798   6.031  0.00  0.00    +0.000 OA
BRANCH  37  39
ATOM     39  O   UNL     1      20.948 -39.749   5.019  0.00  0.00    +0.000 OA
ATOM     40  H   UNL     1      20.503 -40.676   5.072  0.00  0.00    +0.000 HD
ENDBRANCH  37  39
ENDBRANCH  36  37
ENDBRANCH  35  36
ENDBRANCH  31  35
ENDBRANCH  24  25
ENDBRANCH  21  24
ENDBRANCH   9  21
BRANCH   5  41
ATOM     41  C   UNL     1      12.192 -39.787  13.470  0.00  0.00    +0.000 C 
ATOM     42  N   UNL     1      12.052 -39.394  14.528  0.00  0.00    +0.000 NA
ENDBRANCH   5  41
TORSDOF 10
ENDMDL
