MODEL 1
REMARK VINA RESULT:    -8.588      0.000      0.000
REMARK INTER + INTRA:         -10.080
REMARK INTER:                 -10.094
REMARK INTRA:                   0.014
REMARK UNBOUND:                 0.014
REMARK  Name = 
REMARK  5 active torsions:
REMARK  status: ('A' for Active; 'I' for Inactive)
REMARK    1  A    between atoms: S_1  and  C_4
REMARK    2  A    between atoms: S_1  and  N_11
REMARK    3  A    between atoms: C_5  and  C_10
REMARK    4  A    between atoms: C_8  and  C_9
REMARK    5  A    between atoms: C_17  and  C_18
REMARK                            x       y       z     vdW  Elec       q    Type
REMARK                         _______ _______ _______ _____ _____    ______ ____
ROOT
ATOM      1  C   UNL     1      21.017 -42.125   7.710  0.00  0.00    +0.000 C 
ATOM      2  C   UNL     1      21.994 -43.030   8.456  0.00  0.00    +0.000 A 
ATOM      3  C   UNL     1      22.269 -44.279   7.940  0.00  0.00    +0.000 A 
ATOM      4  C   UNL     1      21.445 -44.627   6.750  0.00  0.00    +0.000 C 
ATOM      5  C   UNL     1      21.863 -43.461   5.867  0.00  0.00    +0.000 A 
ATOM      6  C   UNL     1      21.674 -42.195   6.349  0.00  0.00    +0.000 A 
ATOM      7  C   UNL     1      22.074 -41.183   5.567  0.00  0.00    +0.000 A 
ATOM      8  C   UNL     1      22.659 -41.400   4.310  0.00  0.00    +0.000 A 
ATOM      9  C   UNL     1      22.830 -42.689   3.863  0.00  0.00    +0.000 A 
ATOM     10  C   UNL     1      22.426 -43.735   4.652  0.00  0.00    +0.000 A 
ATOM     11  C   UNL     1      20.111 -44.377   7.260  0.00  0.00    +0.000 C 
ATOM     12  C   UNL     1      19.797 -42.896   7.429  0.00  0.00    +0.000 C 
ATOM     13  C   UNL     1      18.667 -43.123   8.282  0.00  0.00    +0.000 C 
ATOM     14  N   UNL     1      17.921 -44.197   7.571  0.00  0.00    +0.000 NA
ATOM     15  C   UNL     1      18.871 -44.766   6.588  0.00  0.00    +0.000 C 
ATOM     16  C   UNL     1      23.121 -45.149   8.478  0.00  0.00    +0.000 A 
ATOM     17  C   UNL     1      23.784 -44.770   9.654  0.00  0.00    +0.000 A 
ATOM     18  C   UNL     1      23.524 -43.528  10.193  0.00  0.00    +0.000 A 
ATOM     19  C   UNL     1      22.629 -42.645   9.605  0.00  0.00    +0.000 A 
ATOM     20  H   UNL     1      17.094 -43.835   7.091  0.00  0.00    +0.000 HD
ENDROOT
BRANCH   1  27
ATOM     21  N   UNL     1      19.686 -40.040   7.898  0.00  0.00    +0.000 NA
ATOM     22  C   UNL     1      19.591 -39.298   6.750  0.00  0.00    +0.000 C 
ATOM     23  C   UNL     1      20.330 -37.988   6.706  0.00  0.00    +0.000 C 
ATOM     24  N   UNL     1      20.957 -37.758   7.944  0.00  0.00    +0.000 NA
ATOM     25  C   UNL     1      22.106 -38.526   8.111  0.00  0.00    +0.000 C 
ATOM     26  C   UNL     1      22.022 -39.929   8.597  0.00  0.00    +0.000 C 
ATOM     27  C   UNL     1      20.843 -40.781   8.312  0.00  0.00    +0.000 C 
ATOM     28  H   UNL     1      20.930 -36.811   8.329  0.00  0.00    +0.000 HD
BRANCH  21  29
ATOM     29  S   UNL     1      18.610 -39.618   9.165  0.00  0.00    +0.000 S 
ATOM     30  O   UNL     1      18.431 -40.778  10.147  0.00  0.00    +0.000 OA
ATOM     31  O   UNL     1      19.245 -38.516   9.967  0.00  0.00    +0.000 OA
BRANCH  29  32
ATOM     32  C   UNL     1      17.018 -39.142   8.715  0.00  0.00    +0.000 A 
ATOM     33  C   UNL     1      16.183 -39.683   7.756  0.00  0.00    +0.000 A 
ATOM     34  O   UNL     1      15.074 -38.994   7.781  0.00  0.00    +0.000 OA
ATOM     35  N   UNL     1      15.093 -38.061   8.653  0.00  0.00    +0.000 NA
ATOM     36  C   UNL     1      16.295 -38.109   9.272  0.00  0.00    +0.000 A 
ATOM     37  C   UNL     1      16.664 -37.158  10.359  0.00  0.00    +0.000 C 
ATOM     38  C   UNL     1      16.463 -40.830   6.855  0.00  0.00    +0.000 C 
ENDBRANCH  29  32
ENDBRANCH  21  29
ENDBRANCH   1  27
TORSDOF 3
ENDMDL
