MODEL 1
REMARK VINA RESULT:    -8.840      0.000      0.000
REMARK INTER + INTRA:         -16.630
REMARK INTER:                 -14.008
REMARK INTRA:                  -2.622
REMARK UNBOUND:                -2.622
REMARK  Name = 
REMARK  12 active torsions:
REMARK  status: ('A' for Active; 'I' for Inactive)
REMARK    1  A    between atoms: C_4  and  C_5
REMARK    2  A    between atoms: C_5  and  C_6
REMARK    3  A    between atoms: C_9  and  N_10
REMARK    4  A    between atoms: N_10  and  C_11
REMARK    5  A    between atoms: C_15  and  N_16
REMARK    6  A    between atoms: N_16  and  C_17
REMARK    7  A    between atoms: N_16  and  C_25
REMARK    8  A    between atoms: C_17  and  C_18
REMARK    9  A    between atoms: C_17  and  C_24
REMARK   10  A    between atoms: C_30  and  N_31
REMARK   11  A    between atoms: C_32  and  C_33
REMARK   12  A    between atoms: C_33  and  C_34
REMARK                            x       y       z     vdW  Elec       q    Type
REMARK                         _______ _______ _______ _____ _____    ______ ____
ROOT
ATOM      1  N   UNL     1      22.113 -41.806   7.554  0.00  0.00    +0.000 N 
ENDROOT
BRANCH   1   7
ATOM      2  N   UNL     1      22.829 -39.490   7.726  0.00  0.00    +0.000 NA
ATOM      3  C   UNL     1      22.614 -38.178   7.915  0.00  0.00    +0.000 A 
ATOM      4  C   UNL     1      21.311 -37.774   8.148  0.00  0.00    +0.000 A 
ATOM      5  C   UNL     1      20.265 -38.669   8.186  0.00  0.00    +0.000 A 
ATOM      6  C   UNL     1      20.583 -40.008   7.978  0.00  0.00    +0.000 A 
ATOM      7  C   UNL     1      21.877 -40.421   7.747  0.00  0.00    +0.000 A 
BRANCH   5   8
ATOM      8  C   UNL     1      18.852 -38.293   8.436  0.00  0.00    +0.000 C 
BRANCH   8   9
ATOM      9  C   UNL     1      18.462 -38.306   9.884  0.00  0.00    +0.000 C 
ATOM     10  C   UNL     1      17.061 -38.766  10.114  0.00  0.00    +0.000 C 
ATOM     11  C   UNL     1      16.008 -37.800   9.639  0.00  0.00    +0.000 C 
ATOM     12  C   UNL     1      16.286 -36.405  10.099  0.00  0.00    +0.000 C 
ATOM     13  C   UNL     1      17.709 -35.967   9.920  0.00  0.00    +0.000 C 
ATOM     14  C   UNL     1      18.701 -36.941  10.469  0.00  0.00    +0.000 C 
BRANCH  12  15
ATOM     15  N   UNL     1      15.912 -36.316  11.512  0.00  0.00    +0.000 NA
ATOM     16  C   UNL     1      14.622 -35.669  11.593  0.00  0.00    +0.000 C 
ATOM     17  H   UNL     1      16.615 -35.789  12.056  0.00  0.00    +0.000 HD
ENDBRANCH  12  15
ENDBRANCH   8   9
ENDBRANCH   5   8
ENDBRANCH   1   7
BRANCH   1  18
ATOM     18  C   UNL     1      21.908 -42.267   6.227  0.00  0.00    +0.000 A 
ATOM     19  C   UNL     1      22.555 -41.478   5.266  0.00  0.00    +0.000 A 
ATOM     20  C   UNL     1      22.464 -41.820   3.957  0.00  0.00    +0.000 A 
ATOM     21  C   UNL     1      21.754 -42.918   3.555  0.00  0.00    +0.000 A 
ATOM     22  C   UNL     1      21.130 -43.671   4.518  0.00  0.00    +0.000 A 
ATOM     23  C   UNL     1      21.181 -43.373   5.891  0.00  0.00    +0.000 A 
BRANCH  23  24
ATOM     24  N   UNL     1      20.470 -44.201   6.828  0.00  0.00    +0.000 N 
ATOM     25  C   UNL     1      19.063 -43.901   7.127  0.00  0.00    +0.000 C 
ATOM     26  C   UNL     1      18.536 -45.088   7.909  0.00  0.00    +0.000 C 
ATOM     27  C   UNL     1      19.767 -45.533   8.670  0.00  0.00    +0.000 C 
ATOM     28  C   UNL     1      20.831 -45.334   7.590  0.00  0.00    +0.000 C 
BRANCH  25  29
ATOM     29  C   UNL     1      18.963 -42.635   7.951  0.00  0.00    +0.000 C 
BRANCH  29  30
ATOM     30  C   UNL     1      17.554 -42.190   8.094  0.00  0.00    +0.000 A 
ATOM     31  N   UNL     1      16.699 -42.672   8.990  0.00  0.00    +0.000 NA
ATOM     32  C   UNL     1      15.417 -42.220   9.067  0.00  0.00    +0.000 A 
ATOM     33  C   UNL     1      14.919 -41.246   8.236  0.00  0.00    +0.000 A 
ATOM     34  C   UNL     1      15.786 -40.722   7.291  0.00  0.00    +0.000 A 
ATOM     35  C   UNL     1      17.077 -41.198   7.234  0.00  0.00    +0.000 A 
ENDBRANCH  29  30
ENDBRANCH  25  29
ENDBRANCH  23  24
ENDBRANCH   1  18
BRANCH   1  36
ATOM     36  C   UNL     1      22.534 -42.704   8.589  0.00  0.00    +0.000 C 
ATOM     37  C   UNL     1      22.369 -42.035   9.974  0.00  0.00    +0.000 C 
BRANCH  36  38
ATOM     38  C   UNL     1      23.974 -43.063   8.537  0.00  0.00    +0.000 A 
ATOM     39  N   UNL     1      24.503 -43.874   7.612  0.00  0.00    +0.000 NA
ATOM     40  C   UNL     1      25.790 -44.240   7.568  0.00  0.00    +0.000 A 
ATOM     41  C   UNL     1      26.680 -43.781   8.515  0.00  0.00    +0.000 A 
ATOM     42  C   UNL     1      26.216 -42.948   9.493  0.00  0.00    +0.000 A 
ATOM     43  C   UNL     1      24.885 -42.597   9.502  0.00  0.00    +0.000 A 
ENDBRANCH  36  38
ENDBRANCH   1  36
TORSDOF 10
ENDMDL
