MODEL 1
REMARK VINA RESULT:    -8.079      0.000      0.000
REMARK INTER + INTRA:         -20.274
REMARK INTER:                 -16.816
REMARK INTRA:                  -3.458
REMARK UNBOUND:                -3.458
REMARK  Name = 
REMARK  26 active torsions:
REMARK  status: ('A' for Active; 'I' for Inactive)
REMARK    1  A    between atoms: N_1  and  C_23
REMARK    2  A    between atoms: C_2  and  C_3
REMARK    3  A    between atoms: C_5  and  C_18
REMARK    4  A    between atoms: C_7  and  C_9
REMARK    5  A    between atoms: C_11  and  C_12
REMARK    6  A    between atoms: C_12  and  O_14
REMARK    7  A    between atoms: C_23  and  C_24
REMARK    8  A    between atoms: C_23  and  C_25
REMARK    9  A    between atoms: C_25  and  C_26
REMARK   10  A    between atoms: C_26  and  C_40
REMARK   11  A    between atoms: C_27  and  C_36
REMARK   12  A    between atoms: C_31  and  C_32
REMARK   13  A    between atoms: C_32  and  O_34
REMARK   14  A    between atoms: O_34  and  C_35
REMARK   15  A    between atoms: C_36  and  O_38
REMARK   16  A    between atoms: O_38  and  C_39
REMARK   17  A    between atoms: C_41  and  O_48
REMARK   18  A    between atoms: C_44  and  O_46
REMARK   19  A    between atoms: O_46  and  C_47
REMARK   20  A    between atoms: O_48  and  C_49
REMARK   21  A    between atoms: C_49  and  N_50
REMARK   22  A    between atoms: C_53  and  N_54
REMARK   23  A    between atoms: N_54  and  C_55
REMARK   24  A    between atoms: N_54  and  C_57
REMARK   25  A    between atoms: C_55  and  C_56
REMARK   26  A    between atoms: C_57  and  C_58
REMARK                            x       y       z     vdW  Elec       q    Type
REMARK                         _______ _______ _______ _____ _____    ______ ____
ROOT
ATOM      1  C   UNL     1      21.862 -45.212   8.563  0.00  0.00    +0.000 C 
ATOM      2  C   UNL     1      22.164 -45.873   9.785  0.00  0.00    +0.000 C 
ATOM      3  C   UNL     1      21.257 -46.642  10.387  0.00  0.00    +0.000 C 
ATOM      4  N   UNL     1      19.923 -46.856   9.943  0.00  0.00    +0.000 N 
ATOM      5  C   UNL     1      19.590 -46.151   8.765  0.00  0.00    +0.000 C 
ATOM      6  C   UNL     1      20.437 -45.395   8.135  0.00  0.00    +0.000 C 
ATOM      7  H   UNL     1      19.246 -47.473  10.433  0.00  0.00    +0.000 HD
ENDROOT
BRANCH   1   8
ATOM      8  C   UNL     1      22.551 -45.972   7.414  0.00  0.00    +0.000 A 
ATOM      9  C   UNL     1      23.766 -45.698   6.868  0.00  0.00    +0.000 A 
ATOM     10  C   UNL     1      24.373 -46.519   5.888  0.00  0.00    +0.000 A 
ATOM     11  C   UNL     1      23.709 -47.630   5.473  0.00  0.00    +0.000 A 
ATOM     12  C   UNL     1      22.503 -47.970   5.963  0.00  0.00    +0.000 A 
ATOM     13  C   UNL     1      21.944 -47.146   6.918  0.00  0.00    +0.000 A 
BRANCH  12  14
ATOM     14  O   UNL     1      21.823 -49.083   5.554  0.00  0.00    +0.000 OA
ATOM     15  C   UNL     1      22.369 -50.216   4.938  0.00  0.00    +0.000 C 
ENDBRANCH  12  14
BRANCH   9  16
ATOM     16  O   UNL     1      24.475 -44.575   7.250  0.00  0.00    +0.000 OA
BRANCH  16  17
ATOM     17  C   UNL     1      25.836 -44.447   6.948  0.00  0.00    +0.000 C 
BRANCH  17  18
ATOM     18  N   UNL     1      26.613 -43.657   7.848  0.00  0.00    +0.000 NA
ATOM     19  C   UNL     1      25.765 -43.435   9.052  0.00  0.00    +0.000 C 
ATOM     20  C   UNL     1      26.412 -42.436   9.944  0.00  0.00    +0.000 C 
ATOM     21  C   UNL     1      27.867 -42.671  10.138  0.00  0.00    +0.000 C 
ATOM     22  C   UNL     1      28.332 -43.966   9.618  0.00  0.00    +0.000 C 
ATOM     23  C   UNL     1      27.674 -44.516   8.400  0.00  0.00    +0.000 C 
BRANCH  21  24
ATOM     24  N   UNL     1      28.157 -42.630  11.625  0.00  0.00    +0.000 NA
BRANCH  24  25
ATOM     25  C   UNL     1      28.198 -43.989  12.070  0.00  0.00    +0.000 C 
ATOM     26  C   UNL     1      27.234 -44.268  13.183  0.00  0.00    +0.000 C 
ENDBRANCH  24  25
BRANCH  24  27
ATOM     27  C   UNL     1      29.493 -42.038  11.715  0.00  0.00    +0.000 C 
ATOM     28  C   UNL     1      29.687 -41.332  13.010  0.00  0.00    +0.000 C 
ENDBRANCH  24  27
ENDBRANCH  21  24
ENDBRANCH  17  18
ENDBRANCH  16  17
ENDBRANCH   9  16
ENDBRANCH   1   8
BRANCH   2  29
ATOM     29  C   UNL     1      23.333 -45.724  10.676  0.00  0.00    +0.000 C 
ATOM     30  O   UNL     1      24.491 -46.209  10.405  0.00  0.00    +0.000 OA
BRANCH  29  31
ATOM     31  O   UNL     1      23.285 -45.082  11.870  0.00  0.00    +0.000 OA
ATOM     32  C   UNL     1      23.752 -45.666  13.069  0.00  0.00    +0.000 C 
ENDBRANCH  29  31
ENDBRANCH   2  29
BRANCH   6  33
ATOM     33  C   UNL     1      19.908 -44.661   6.964  0.00  0.00    +0.000 C 
ATOM     34  O   UNL     1      19.101 -43.721   6.998  0.00  0.00    +0.000 OA
BRANCH  33  35
ATOM     35  O   UNL     1      20.336 -45.035   5.703  0.00  0.00    +0.000 OA
ATOM     36  C   UNL     1      20.996 -44.122   4.829  0.00  0.00    +0.000 C 
ENDBRANCH  33  35
ENDBRANCH   6  33
BRANCH   1  37
ATOM     37  C   UNL     1      22.246 -43.797   8.403  0.00  0.00    +0.000 C 
BRANCH  37  38
ATOM     38  C   UNL     1      21.707 -42.694   9.188  0.00  0.00    +0.000 C 
ATOM     39  C   UNL     1      22.628 -42.169  10.230  0.00  0.00    +0.000 C 
BRANCH  38  40
ATOM     40  N   UNL     1      21.278 -41.562   8.366  0.00  0.00    +0.000 NA
ATOM     41  C   UNL     1      21.434 -40.297   9.008  0.00  0.00    +0.000 C 
ATOM     42  C   UNL     1      22.038 -39.262   8.042  0.00  0.00    +0.000 C 
ATOM     43  C   UNL     1      23.390 -39.643   7.549  0.00  0.00    +0.000 C 
ATOM     44  C   UNL     1      23.380 -41.110   7.196  0.00  0.00    +0.000 C 
ATOM     45  C   UNL     1      21.937 -41.561   7.105  0.00  0.00    +0.000 C 
BRANCH  41  46
ATOM     46  C   UNL     1      20.084 -39.758   9.323  0.00  0.00    +0.000 A 
ATOM     47  N   UNL     1      19.869 -38.471   9.570  0.00  0.00    +0.000 NA
ATOM     48  C   UNL     1      18.630 -38.038   9.838  0.00  0.00    +0.000 A 
ATOM     49  N   UNL     1      17.580 -38.877   9.866  0.00  0.00    +0.000 NA
ATOM     50  C   UNL     1      17.733 -40.205   9.622  0.00  0.00    +0.000 A 
ATOM     51  C   UNL     1      19.010 -40.637   9.348  0.00  0.00    +0.000 A 
ATOM     52  C   UNL     1      18.459 -36.587  10.107  0.00  0.00    +0.000 C 
BRANCH  50  53
ATOM     53  C   UNL     1      16.586 -41.094   9.647  0.00  0.00    +0.000 A 
ATOM     54  C   UNL     1      16.562 -42.314   9.015  0.00  0.00    +0.000 A 
ATOM     55  C   UNL     1      15.462 -43.143   9.048  0.00  0.00    +0.000 A 
ATOM     56  C   UNL     1      14.356 -42.721   9.744  0.00  0.00    +0.000 A 
ATOM     57  N   UNL     1      14.378 -41.527  10.364  0.00  0.00    +0.000 NA
ATOM     58  C   UNL     1      15.449 -40.722  10.329  0.00  0.00    +0.000 A 
BRANCH  55  59
ATOM     59  C   UNL     1      15.437 -44.437   8.371  0.00  0.00    +0.000 C 
ATOM     60  O   UNL     1      16.419 -45.235   8.497  0.00  0.00    +0.000 OA
BRANCH  59  61
ATOM     61  O   UNL     1      14.386 -44.840   7.591  0.00  0.00    +0.000 OA
ATOM     62  H   UNL     1      14.509 -44.933   6.579  0.00  0.00    +0.000 HD
ENDBRANCH  59  61
ENDBRANCH  55  59
ENDBRANCH  50  53
ENDBRANCH  41  46
ENDBRANCH  38  40
ENDBRANCH  37  38
ENDBRANCH   1  37
TORSDOF 19
ENDMDL
