MODEL 1
REMARK VINA RESULT:    -9.194      0.000      0.000
REMARK INTER + INTRA:         -15.251
REMARK INTER:                 -14.301
REMARK INTRA:                  -0.950
REMARK UNBOUND:                -0.950
REMARK  Name = 
REMARK  12 active torsions:
REMARK  status: ('A' for Active; 'I' for Inactive)
REMARK    1  A    between atoms: C_1  and  C_16
REMARK    2  A    between atoms: N_2  and  O_3
REMARK    3  A    between atoms: O_3  and  C_4
REMARK    4  A    between atoms: C_4  and  C_6
REMARK    5  A    between atoms: C_6  and  O_7
REMARK    6  A    between atoms: O_7  and  C_8
REMARK    7  A    between atoms: C_9  and  C_15
REMARK    8  A    between atoms: C_11  and  C_14
REMARK    9  A    between atoms: N_22  and  N_23
REMARK   10  A    between atoms: C_26  and  C_34
REMARK   11  A    between atoms: C_34  and  C_35
REMARK   12  A    between atoms: C_35  and  O_37
REMARK                            x       y       z     vdW  Elec       q    Type
REMARK                         _______ _______ _______ _____ _____    ______ ____
ROOT
ATOM      1  C   UNL     1      15.896 -42.912   8.942  0.00  0.00    +0.000 C 
ATOM      2  N   UNL     1      15.699 -41.888   8.184  0.00  0.00    +0.000 NA
ATOM      3  N   UNL     1      15.304 -42.963  10.238  0.00  0.00    +0.000 N 
ATOM      4  H   UNL     1      15.752 -43.520  11.018  0.00  0.00    +0.000 HD
ENDROOT
BRANCH   3   5
ATOM      5  N   UNL     1      14.116 -42.253  10.421  0.00  0.00    +0.000 N 
ATOM      6  C   UNL     1      14.114 -41.079  11.221  0.00  0.00    +0.000 C 
ATOM      7  O   UNL     1      15.109 -40.790  11.953  0.00  0.00    +0.000 OA
ATOM      8  C   UNL     1      12.968 -40.106  11.266  0.00  0.00    +0.000 C 
ATOM      9  N   UNL     1      11.745 -40.722  10.868  0.00  0.00    +0.000 N 
ATOM     10  C   UNL     1      11.722 -41.909  10.052  0.00  0.00    +0.000 A 
ATOM     11  C   UNL     1      12.874 -42.639   9.845  0.00  0.00    +0.000 A 
ATOM     12  C   UNL     1      12.870 -43.781   9.064  0.00  0.00    +0.000 A 
ATOM     13  C   UNL     1      11.684 -44.185   8.489  0.00  0.00    +0.000 A 
ATOM     14  C   UNL     1      10.516 -43.443   8.701  0.00  0.00    +0.000 A 
ATOM     15  C   UNL     1      10.517 -42.306   9.476  0.00  0.00    +0.000 A 
ATOM     16  H   UNL     1      10.844 -40.319  11.165  0.00  0.00    +0.000 HD
BRANCH   8  17
ATOM     17  C   UNL     1      12.897 -39.547  12.668  0.00  0.00    +0.000 C 
BRANCH  17  18
ATOM     18  C   UNL     1      11.548 -39.563  13.237  0.00  0.00    +0.000 C 
ATOM     19  O   UNL     1      11.215 -40.632  13.850  0.00  0.00    +0.000 OA
BRANCH  18  20
ATOM     20  O   UNL     1      10.618 -38.558  13.181  0.00  0.00    +0.000 OA
ATOM     21  H   UNL     1      10.940 -37.593  13.103  0.00  0.00    +0.000 HD
ENDBRANCH  18  20
ENDBRANCH  17  18
ENDBRANCH   8  17
ENDBRANCH   3   5
BRANCH   1  22
ATOM     22  C   UNL     1      16.732 -44.041   8.477  0.00  0.00    +0.000 A 
ATOM     23  C   UNL     1      16.298 -45.332   8.607  0.00  0.00    +0.000 A 
ATOM     24  N   UNL     1      17.052 -46.377   8.185  0.00  0.00    +0.000 NA
ATOM     25  C   UNL     1      18.256 -46.203   7.622  0.00  0.00    +0.000 A 
ATOM     26  C   UNL     1      18.729 -44.896   7.475  0.00  0.00    +0.000 A 
ATOM     27  C   UNL     1      17.963 -43.805   7.905  0.00  0.00    +0.000 A 
ENDBRANCH   1  22
BRANCH   2  28
ATOM     28  O   UNL     1      14.915 -40.877   8.676  0.00  0.00    +0.000 OA
BRANCH  28  29
ATOM     29  C   UNL     1      15.061 -39.593   8.162  0.00  0.00    +0.000 C 
ATOM     30  O   UNL     1      14.933 -39.476   6.904  0.00  0.00    +0.000 OA
BRANCH  29  31
ATOM     31  C   UNL     1      15.352 -38.421   9.046  0.00  0.00    +0.000 C 
BRANCH  31  32
ATOM     32  O   UNL     1      16.346 -38.800   9.961  0.00  0.00    +0.000 OA
BRANCH  32  33
ATOM     33  C   UNL     1      17.697 -38.852   9.737  0.00  0.00    +0.000 A 
ATOM     34  C   UNL     1      18.482 -37.745   9.968  0.00  0.00    +0.000 A 
ATOM     35  C   UNL     1      19.848 -37.749   9.755  0.00  0.00    +0.000 A 
ATOM     36  C   UNL     1      20.431 -38.903   9.300  0.00  0.00    +0.000 A 
ATOM     37  C   UNL     1      19.667 -40.018   9.064  0.00  0.00    +0.000 A 
ATOM     38  C   UNL     1      18.295 -39.988   9.284  0.00  0.00    +0.000 A 
ATOM     39  C   UNL     1      21.894 -38.977   9.052  0.00  0.00    +0.000 C 
ATOM     40  C   UNL     1      17.846 -36.509  10.459  0.00  0.00    +0.000 C 
ENDBRANCH  32  33
ENDBRANCH  31  32
ENDBRANCH  29  31
ENDBRANCH  28  29
ENDBRANCH   2  28
TORSDOF 10
ENDMDL
