MODEL 1
REMARK VINA RESULT:    -8.249      0.000      0.000
REMARK INTER + INTRA:         -10.608
REMARK INTER:                 -11.383
REMARK INTRA:                   0.776
REMARK UNBOUND:                 0.776
REMARK  Name = 
REMARK  10 active torsions:
REMARK  status: ('A' for Active; 'I' for Inactive)
REMARK    1  A    between atoms: N_6  and  C_7
REMARK    2  A    between atoms: C_7  and  C_8
REMARK    3  A    between atoms: C_8  and  O_10
REMARK    4  A    between atoms: O_10  and  C_11
REMARK    5  A    between atoms: C_11  and  C_12
REMARK    6  A    between atoms: C_19  and  C_31
REMARK    7  A    between atoms: C_23  and  C_24
REMARK    8  A    between atoms: C_26  and  C_30
REMARK    9  A    between atoms: C_28  and  C_29
REMARK   10  A    between atoms: C_31  and  O_33
REMARK                            x       y       z     vdW  Elec       q    Type
REMARK                         _______ _______ _______ _____ _____    ______ ____
ROOT
ATOM      1  C   UNL     1      21.039 -44.294   7.139  0.00  0.00    +0.000 C 
ATOM      2  C   UNL     1      21.085 -45.610   7.106  0.00  0.00    +0.000 C 
ATOM      3  C   UNL     1      20.166 -45.944   8.140  0.00  0.00    +0.000 C 
ATOM      4  C   UNL     1      19.473 -44.900   7.162  0.00  0.00    +0.000 C 
ATOM      5  N   UNL     1      19.698 -45.673   5.871  0.00  0.00    +0.000 N 
ATOM      6  C   UNL     1      20.960 -46.454   6.263  0.00  0.00    +0.000 C 
ATOM      7  C   UNL     1      21.524 -47.669   5.912  0.00  0.00    +0.000 C 
ATOM      8  C   UNL     1      21.233 -48.993   6.311  0.00  0.00    +0.000 C 
ATOM      9  C   UNL     1      21.682 -49.985   5.400  0.00  0.00    +0.000 C 
ATOM     10  C   UNL     1      22.661 -47.881   5.053  0.00  0.00    +0.000 C 
ATOM     11  C   UNL     1      23.846 -47.293   5.128  0.00  0.00    +0.000 C 
ATOM     12  C   UNL     1      24.382 -46.308   6.033  0.00  0.00    +0.000 C 
ATOM     13  C   UNL     1      24.438 -46.103   7.364  0.00  0.00    +0.000 C 
ATOM     14  C   UNL     1      25.209 -44.803   7.723  0.00  0.00    +0.000 C 
ATOM     15  C   UNL     1      24.781 -47.787   3.990  0.00  0.00    +0.000 C 
ATOM     16  C   UNL     1      19.391 -47.213   7.980  0.00  0.00    +0.000 C 
ATOM     17  C   UNL     1      19.871 -48.502   8.512  0.00  0.00    +0.000 C 
ATOM     18  N   UNL     1      20.535 -49.396   7.537  0.00  0.00    +0.000 N 
ATOM     19  C   UNL     1      20.747 -45.597   9.368  0.00  0.00    +0.000 C 
ATOM     20  C   UNL     1      21.918 -46.051   9.808  0.00  0.00    +0.000 C 
ATOM     21  C   UNL     1      22.947 -46.914   9.369  0.00  0.00    +0.000 C 
ATOM     22  C   UNL     1      23.897 -46.910   8.439  0.00  0.00    +0.000 C 
ATOM     23  H   UNL     1      19.196 -45.699   5.008  0.00  0.00    +0.000 HD
ATOM     24  H   UNL     1      20.554 -50.373   7.650  0.00  0.00    +0.000 HD
ENDROOT
BRANCH   1  25
ATOM     25  C   UNL     1      21.057 -43.179   7.909  0.00  0.00    +0.000 A 
ATOM     26  S   UNL     1      22.343 -42.717   9.073  0.00  0.00    +0.000 S 
ATOM     27  C   UNL     1      21.611 -41.086   9.637  0.00  0.00    +0.000 A 
ATOM     28  C   UNL     1      20.479 -41.107   8.861  0.00  0.00    +0.000 A 
ATOM     29  C   UNL     1      20.223 -42.105   8.043  0.00  0.00    +0.000 A 
ENDBRANCH   1  25
BRANCH   4  30
ATOM     30  C   UNL     1      18.457 -44.139   7.483  0.00  0.00    +0.000 C 
ATOM     31  O   UNL     1      17.785 -44.249   8.590  0.00  0.00    +0.000 OA
BRANCH  30  32
ATOM     32  O   UNL     1      17.956 -43.103   6.685  0.00  0.00    +0.000 OA
ATOM     33  H   UNL     1      17.091 -42.638   6.922  0.00  0.00    +0.000 HD
ENDBRANCH  30  32
ENDBRANCH   4  30
BRANCH   1  34
ATOM     34  O   UNL     1      20.991 -43.793   5.697  0.00  0.00    +0.000 OA
BRANCH  34  35
ATOM     35  C   UNL     1      22.088 -43.146   5.204  0.00  0.00    +0.000 C 
ATOM     36  O   UNL     1      23.170 -43.252   5.823  0.00  0.00    +0.000 OA
BRANCH  35  37
ATOM     37  C   UNL     1      22.065 -42.321   3.970  0.00  0.00    +0.000 C 
BRANCH  37  43
ATOM     38  C   UNL     1      21.902 -43.224   1.628  0.00  0.00    +0.000 C 
ATOM     39  N   UNL     1      20.711 -42.760   1.405  0.00  0.00    +0.000 NA
ATOM     40  C   UNL     1      20.274 -43.075   0.059  0.00  0.00    +0.000 C 
ATOM     41  C   UNL     1      21.439 -43.727  -0.617  0.00  0.00    +0.000 C 
ATOM     42  N   UNL     1      22.384 -43.890   0.470  0.00  0.00    +0.000 N 
ATOM     43  N   UNL     1      22.594 -43.074   2.846  0.00  0.00    +0.000 N 
ATOM     44  H   UNL     1      23.272 -44.432   0.345  0.00  0.00    +0.000 HD
ATOM     45  H   UNL     1      23.540 -43.529   2.953  0.00  0.00    +0.000 HD
ENDBRANCH  37  43
ENDBRANCH  35  37
ENDBRANCH  34  35
ENDBRANCH   1  34
TORSDOF 7
ENDMDL
