MODEL 1
REMARK VINA RESULT:    -8.621      0.000      0.000
REMARK INTER + INTRA:         -13.441
REMARK INTER:                 -12.401
REMARK INTRA:                  -1.040
REMARK UNBOUND:                -1.040
REMARK  Name = 
REMARK  10 active torsions:
REMARK  status: ('A' for Active; 'I' for Inactive)
REMARK    1  A    between atoms: C_5  and  N_8
REMARK    2  A    between atoms: C_6  and  O_7
REMARK    3  A    between atoms: N_11  and  C_12
REMARK    4  A    between atoms: C_12  and  C_13
REMARK    5  A    between atoms: C_19  and  N_20
REMARK    6  A    between atoms: C_22  and  C_23
REMARK    7  A    between atoms: C_23  and  N_24
REMARK    8  A    between atoms: N_24  and  C_25
REMARK    9  A    between atoms: N_24  and  C_26
REMARK   10  A    between atoms: C_39  and  C_40
REMARK                            x       y       z     vdW  Elec       q    Type
REMARK                         _______ _______ _______ _____ _____    ______ ____
ROOT
ATOM      1  N   UNL     1      22.692 -43.264   8.098  0.00  0.00    +0.000 N 
ATOM      2  C   UNL     1      23.930 -43.144   8.774  0.00  0.00    +0.000 C 
ATOM      3  C   UNL     1      24.608 -44.348   9.264  0.00  0.00    +0.000 C 
ATOM      4  C   UNL     1      23.565 -45.280   9.898  0.00  0.00    +0.000 C 
ATOM      5  C   UNL     1      22.944 -45.966   8.671  0.00  0.00    +0.000 C 
ATOM      6  C   UNL     1      21.398 -45.709   8.820  0.00  0.00    +0.000 C 
ATOM      7  S   UNL     1      21.216 -43.917   8.929  0.00  0.00    +0.000 S 
ATOM      8  C   UNL     1      19.672 -43.919   7.910  0.00  0.00    +0.000 C 
ATOM      9  C   UNL     1      18.633 -43.410   8.515  0.00  0.00    +0.000 C 
ATOM     10  C   UNL     1      17.294 -44.092   8.446  0.00  0.00    +0.000 C 
ATOM     11  C   UNL     1      16.999 -45.373   8.026  0.00  0.00    +0.000 C 
ATOM     12  C   UNL     1      19.778 -44.681   6.612  0.00  0.00    +0.000 C 
ATOM     13  O   UNL     1      19.246 -45.985   6.925  0.00  0.00    +0.000 OA
ATOM     14  C   UNL     1      18.216 -46.271   7.754  0.00  0.00    +0.000 C 
ATOM     15  C   UNL     1      18.026 -47.391   8.498  0.00  0.00    +0.000 C 
ATOM     16  C   UNL     1      18.939 -48.516   8.631  0.00  0.00    +0.000 C 
ATOM     17  C   UNL     1      19.952 -48.504   9.454  0.00  0.00    +0.000 C 
ATOM     18  C   UNL     1      20.433 -47.484  10.407  0.00  0.00    +0.000 C 
ATOM     19  C   UNL     1      21.023 -46.311  10.031  0.00  0.00    +0.000 C 
ATOM     20  H   UNL     1      21.055 -43.341  10.327  0.00  0.00    +0.000 HD
ENDROOT
BRANCH   1  31
ATOM     21  C   UNL     1      21.848 -41.381   6.846  0.00  0.00    +0.000 A 
ATOM     22  C   UNL     1      21.635 -40.797   5.419  0.00  0.00    +0.000 A 
ATOM     23  N   UNL     1      21.105 -39.619   5.503  0.00  0.00    +0.000 NA
ATOM     24  C   UNL     1      20.688 -38.753   6.319  0.00  0.00    +0.000 A 
ATOM     25  C   UNL     1      20.873 -39.299   7.741  0.00  0.00    +0.000 A 
ATOM     26  C   UNL     1      21.433 -40.525   7.703  0.00  0.00    +0.000 A 
ATOM     27  C   UNL     1      21.913 -41.570   4.383  0.00  0.00    +0.000 A 
ATOM     28 CL   UNL     1      21.663 -40.881   2.740  0.00  0.00    +0.000 Cl
ATOM     29  C   UNL     1      22.353 -42.833   4.493  0.00  0.00    +0.000 A 
ATOM     30  C   UNL     1      22.543 -43.363   5.822  0.00  0.00    +0.000 A 
ATOM     31  C   UNL     1      22.298 -42.632   6.889  0.00  0.00    +0.000 A 
BRANCH  25  32
ATOM     32  N   UNL     1      20.682 -38.474   8.811  0.00  0.00    +0.000 N 
ATOM     33  C   UNL     1      19.283 -38.392   9.270  0.00  0.00    +0.000 C 
ATOM     34  O   UNL     1      18.437 -39.182   8.826  0.00  0.00    +0.000 OA
ATOM     35  N   UNL     1      18.898 -37.406  10.240  0.00  0.00    +0.000 N 
ATOM     36  H   UNL     1      21.383 -37.882   9.343  0.00  0.00    +0.000 HD
ATOM     37  H   UNL     1      19.687 -36.766  10.562  0.00  0.00    +0.000 HD
BRANCH  35  38
ATOM     38  C   UNL     1      17.576 -37.420  10.704  0.00  0.00    +0.000 C 
BRANCH  38  39
ATOM     39  C   UNL     1      16.817 -36.102  10.907  0.00  0.00    +0.000 C 
ATOM     40  C   UNL     1      16.162 -35.007  11.083  0.00  0.00    +0.000 C 
ENDBRANCH  38  39
ENDBRANCH  35  38
ENDBRANCH  25  32
BRANCH  26  41
ATOM     41  O   UNL     1      21.600 -40.968   9.074  0.00  0.00    +0.000 OA
ATOM     42  H   UNL     1      22.493 -40.979   9.429  0.00  0.00    +0.000 HD
ENDBRANCH  26  41
ENDBRANCH   1  31
BRANCH  16  43
ATOM     43  C   UNL     1      18.584 -49.780   7.928  0.00  0.00    +0.000 C 
ATOM     44  O   UNL     1      17.868 -49.700   6.850  0.00  0.00    +0.000 OA
ENDBRANCH  16  43
BRANCH   3  45
ATOM     45  C   UNL     1      25.766 -44.130  10.174  0.00  0.00    +0.000 C 
BRANCH  45  46
ATOM     46  N   UNL     1      26.712 -43.168   9.611  0.00  0.00    +0.000 NA
ATOM     47  C   UNL     1      27.103 -42.168  10.530  0.00  0.00    +0.000 C 
ATOM     48  C   UNL     1      27.772 -43.735   8.889  0.00  0.00    +0.000 C 
ENDBRANCH  45  46
ENDBRANCH   3  45
TORSDOF 8
ENDMDL
