MODEL 1
REMARK VINA RESULT:    -7.646      0.000      0.000
REMARK INTER + INTRA:         -17.710
REMARK INTER:                 -14.127
REMARK INTRA:                  -3.583
REMARK UNBOUND:                -3.583
REMARK  Name = 
REMARK  17 active torsions:
REMARK  status: ('A' for Active; 'I' for Inactive)
REMARK    1  A    between atoms: C_1  and  C_13
REMARK    2  A    between atoms: C_3  and  C_7
REMARK    3  A    between atoms: C_5  and  C_6
REMARK    4  A    between atoms: C_13  and  O_15
REMARK    5  A    between atoms: O_15  and  C_16
REMARK    6  A    between atoms: C_16  and  C_17
REMARK    7  A    between atoms: C_16  and  C_21
REMARK    8  A    between atoms: C_16  and  C_25
REMARK    9  A    between atoms: C_17  and  C_18
REMARK   10  A    between atoms: C_21  and  C_22
REMARK   11  A    between atoms: C_22  and  O_24
REMARK   12  A    between atoms: C_28  and  O_31
REMARK   13  A    between atoms: O_31  and  C_32
REMARK   14  A    between atoms: C_32  and  C_33
REMARK   15  A    between atoms: C_33  and  C_34
REMARK   16  A    between atoms: C_34  and  C_35
REMARK   17  A    between atoms: C_35  and  C_36
REMARK                            x       y       z     vdW  Elec       q    Type
REMARK                         _______ _______ _______ _____ _____    ______ ____
ROOT
ATOM      1  C   UNL     1      13.403 -40.880  10.461  0.00  0.00    +0.000 C 
ENDROOT
BRANCH   1   2
ATOM      2  C   UNL     1      13.700 -39.435  10.664  0.00  0.00    +0.000 A 
ATOM      3  C   UNL     1      14.917 -39.025  11.203  0.00  0.00    +0.000 A 
ATOM      4  C   UNL     1      15.201 -37.697  11.415  0.00  0.00    +0.000 A 
ATOM      5  C   UNL     1      14.274 -36.681  11.098  0.00  0.00    +0.000 A 
ATOM      6  C   UNL     1      13.076 -37.074  10.570  0.00  0.00    +0.000 A 
ATOM      7  C   UNL     1      12.816 -38.437  10.366  0.00  0.00    +0.000 A 
BRANCH   5   8
ATOM      8  O   UNL     1      14.587 -35.386  11.321  0.00  0.00    +0.000 OA
BRANCH   8   9
ATOM      9  C   UNL     1      15.677 -34.600  11.366  0.00  0.00    +0.000 C 
BRANCH   9  10
ATOM     10  C   UNL     1      16.157 -34.043  10.059  0.00  0.00    +0.000 C 
BRANCH  10  11
ATOM     11  C   UNL     1      17.587 -34.499   9.778  0.00  0.00    +0.000 C 
BRANCH  11  12
ATOM     12  C   UNL     1      17.609 -35.986   9.457  0.00  0.00    +0.000 C 
ATOM     13  C   UNL     1      18.495 -36.719  10.417  0.00  0.00    +0.000 C 
ENDBRANCH  11  12
ENDBRANCH  10  11
ENDBRANCH   9  10
ENDBRANCH   8   9
ENDBRANCH   5   8
ENDBRANCH   1   2
BRANCH   1  14
ATOM     14  O   UNL     1      14.399 -41.733  10.141  0.00  0.00    +0.000 OA
BRANCH  14  15
ATOM     15  C   UNL     1      15.208 -42.017   9.126  0.00  0.00    +0.000 C 
ATOM     16  O   UNL     1      15.062 -43.078   8.536  0.00  0.00    +0.000 OA
BRANCH  15  17
ATOM     17  C   UNL     1      16.297 -41.110   8.656  0.00  0.00    +0.000 A 
ATOM     18  S   UNL     1      17.983 -41.172   9.108  0.00  0.00    +0.000 S 
ATOM     19  C   UNL     1      18.470 -39.713   8.077  0.00  0.00    +0.000 A 
ATOM     20  N   UNL     1      17.384 -39.429   7.591  0.00  0.00    +0.000 NA
ATOM     21  C   UNL     1      16.262 -40.055   7.815  0.00  0.00    +0.000 A 
ATOM     22  C   UNL     1      14.960 -39.630   7.162  0.00  0.00    +0.000 C 
BRANCH  19  23
ATOM     23  C   UNL     1      19.846 -39.231   8.050  0.00  0.00    +0.000 A 
ATOM     24  N   UNL     1      20.423 -38.650   6.986  0.00  0.00    +0.000 NA
ATOM     25  C   UNL     1      21.686 -38.236   6.986  0.00  0.00    +0.000 A 
ATOM     26  C   UNL     1      22.505 -38.381   8.112  0.00  0.00    +0.000 A 
ATOM     27  C   UNL     1      21.926 -38.976   9.214  0.00  0.00    +0.000 A 
ATOM     28  C   UNL     1      20.597 -39.393   9.163  0.00  0.00    +0.000 A 
ENDBRANCH  19  23
ENDBRANCH  15  17
ENDBRANCH  14  15
ENDBRANCH   1  14
BRANCH   1  29
ATOM     29  C   UNL     1      12.699 -41.311  11.771  0.00  0.00    +0.000 C 
BRANCH  29  30
ATOM     30  C   UNL     1      13.394 -42.359  12.499  0.00  0.00    +0.000 C 
ATOM     31  O   UNL     1      13.023 -43.540  12.594  0.00  0.00    +0.000 OA
ATOM     32  N   UNL     1      14.605 -42.021  13.167  0.00  0.00    +0.000 N 
ATOM     33  H   UNL     1      15.479 -42.016  12.601  0.00  0.00    +0.000 HD
ATOM     34  H   UNL     1      14.683 -41.778  14.174  0.00  0.00    +0.000 HD
ENDBRANCH  29  30
ENDBRANCH   1  29
BRANCH   1  35
ATOM     35  C   UNL     1      12.348 -41.047   9.355  0.00  0.00    +0.000 C 
BRANCH  35  36
ATOM     36  C   UNL     1      11.602 -42.334   9.573  0.00  0.00    +0.000 C 
ATOM     37  O   UNL     1      10.347 -42.329   9.808  0.00  0.00    +0.000 OA
BRANCH  36  38
ATOM     38  O   UNL     1      12.232 -43.554   9.529  0.00  0.00    +0.000 OA
ATOM     39  H   UNL     1      12.284 -44.142  10.377  0.00  0.00    +0.000 HD
ENDBRANCH  36  38
ENDBRANCH  35  36
ENDBRANCH   1  35
TORSDOF 15
ENDMDL
