MODEL 1
REMARK VINA RESULT:    -8.260      0.000      0.000
REMARK INTER + INTRA:         -13.741
REMARK INTER:                 -12.122
REMARK INTRA:                  -1.618
REMARK UNBOUND:                -1.618
REMARK  Name = 
REMARK  13 active torsions:
REMARK  status: ('A' for Active; 'I' for Inactive)
REMARK    1  A    between atoms: C_1  and  C_18
REMARK    2  A    between atoms: C_8  and  C_11
REMARK    3  A    between atoms: C_19  and  O_20
REMARK    4  A    between atoms: O_20  and  C_21
REMARK    5  A    between atoms: C_25  and  N_26
REMARK    6  A    between atoms: N_26  and  C_34
REMARK    7  A    between atoms: C_27  and  C_29
REMARK    8  A    between atoms: C_29  and  C_30
REMARK    9  A    between atoms: C_29  and  C_33
REMARK   10  A    between atoms: C_30  and  C_31
REMARK   11  A    between atoms: C_31  and  C_32
REMARK   12  A    between atoms: C_35  and  C_41
REMARK   13  A    between atoms: C_38  and  C_40
REMARK                            x       y       z     vdW  Elec       q    Type
REMARK                         _______ _______ _______ _____ _____    ______ ____
ROOT
ATOM      1  C   UNL     1      20.516 -39.657   8.087  0.00  0.00    +0.000 A 
ATOM      2  C   UNL     1      20.248 -38.284   7.901  0.00  0.00    +0.000 A 
ATOM      3  C   UNL     1      21.032 -37.534   7.054  0.00  0.00    +0.000 A 
ATOM      4  C   UNL     1      22.082 -38.123   6.387  0.00  0.00    +0.000 A 
ATOM      5  C   UNL     1      22.305 -39.467   6.599  0.00  0.00    +0.000 A 
ATOM      6  C   UNL     1      21.549 -40.261   7.436  0.00  0.00    +0.000 A 
ENDROOT
BRANCH   1   7
ATOM      7  C   UNL     1      19.688 -40.427   9.003  0.00  0.00    +0.000 C 
ATOM      8  O   UNL     1      20.148 -40.806  10.122  0.00  0.00    +0.000 OA
ATOM      9  N   UNL     1      18.359 -40.730   8.603  0.00  0.00    +0.000 N 
ATOM     10  C   UNL     1      17.488 -41.493   9.488  0.00  0.00    +0.000 C 
ATOM     11  C   UNL     1      16.243 -40.705   9.684  0.00  0.00    +0.000 A 
ATOM     12  C   UNL     1      15.807 -39.842   8.713  0.00  0.00    +0.000 A 
ATOM     13  N   UNL     1      14.674 -39.151   8.937  0.00  0.00    +0.000 NA
ATOM     14  C   UNL     1      13.969 -39.285  10.072  0.00  0.00    +0.000 A 
ATOM     15  N   UNL     1      14.426 -40.143  11.007  0.00  0.00    +0.000 NA
ATOM     16  C   UNL     1      15.545 -40.857  10.844  0.00  0.00    +0.000 A 
ATOM     17  C   UNL     1      16.501 -39.622   7.442  0.00  0.00    +0.000 C 
ATOM     18  C   UNL     1      17.844 -40.297   7.345  0.00  0.00    +0.000 C 
BRANCH  14  19
ATOM     19  C   UNL     1      12.724 -38.549  10.351  0.00  0.00    +0.000 C 
ATOM     20  N   UNL     1      12.771 -37.157   9.990  0.00  0.00    +0.000 NA
ATOM     21  C   UNL     1      11.795 -36.468  10.771  0.00  0.00    +0.000 C 
ATOM     22  C   UNL     1      11.334 -37.406  11.857  0.00  0.00    +0.000 C 
ATOM     23  C   UNL     1      12.387 -38.492  11.824  0.00  0.00    +0.000 C 
ATOM     24  H   UNL     1      13.706 -36.741   9.944  0.00  0.00    +0.000 HD
ENDBRANCH  14  19
ENDBRANCH   1   7
BRANCH   6  25
ATOM     25  N   UNL     1      21.848 -41.616   7.625  0.00  0.00    +0.000 N 
ATOM     26  C   UNL     1      22.869 -41.912   8.598  0.00  0.00    +0.000 C 
ATOM     27  O   UNL     1      23.398 -40.922   9.211  0.00  0.00    +0.000 OA
BRANCH  25  28
ATOM     28  C   UNL     1      21.256 -42.705   6.972  0.00  0.00    +0.000 A 
ATOM     29  C   UNL     1      21.778 -43.181   5.790  0.00  0.00    +0.000 A 
ATOM     30  C   UNL     1      21.199 -44.274   5.132  0.00  0.00    +0.000 A 
ATOM     31  C   UNL     1      20.106 -44.881   5.657  0.00  0.00    +0.000 A 
ATOM     32  C   UNL     1      19.550 -44.434   6.843  0.00  0.00    +0.000 A 
ATOM     33  C   UNL     1      20.126 -43.359   7.482  0.00  0.00    +0.000 A 
ATOM     34  C   UNL     1      18.360 -45.139   7.363  0.00  0.00    +0.000 C 
ATOM     35  C   UNL     1      22.955 -42.535   5.188  0.00  0.00    +0.000 C 
ENDBRANCH  25  28
BRANCH  26  36
ATOM     36  C   UNL     1      23.348 -43.253   8.942  0.00  0.00    +0.000 C 
ATOM     37  C   UNL     1      24.839 -43.320   8.681  0.00  0.00    +0.000 C 
BRANCH  36  38
ATOM     38  C   UNL     1      23.194 -43.514  10.450  0.00  0.00    +0.000 C 
BRANCH  38  39
ATOM     39  C   UNL     1      23.056 -45.022  10.609  0.00  0.00    +0.000 C 
ATOM     40  C   UNL     1      21.922 -45.528   9.752  0.00  0.00    +0.000 C 
ENDBRANCH  38  39
ENDBRANCH  36  38
ENDBRANCH  26  36
ENDBRANCH   6  25
BRANCH   2  41
ATOM     41  O   UNL     1      19.205 -37.715   8.571  0.00  0.00    +0.000 OA
ATOM     42  C   UNL     1      19.200 -37.339   9.912  0.00  0.00    +0.000 C 
ENDBRANCH   2  41
TORSDOF 8
ENDMDL
