MODEL 1
REMARK VINA RESULT:    -7.924      0.000      0.000
REMARK INTER + INTRA:         -13.467
REMARK INTER:                 -12.556
REMARK INTRA:                  -0.910
REMARK UNBOUND:                -0.910
REMARK  Name = 
REMARK  12 active torsions:
REMARK  status: ('A' for Active; 'I' for Inactive)
REMARK    1  A    between atoms: S_1  and  N_4
REMARK    2  A    between atoms: S_1  and  C_11
REMARK    3  A    between atoms: C_13  and  N_14
REMARK    4  A    between atoms: C_15  and  C_17
REMARK    5  A    between atoms: C_21  and  N_22
REMARK    6  A    between atoms: C_23  and  C_24
REMARK    7  A    between atoms: C_24  and  O_26
REMARK    8  A    between atoms: C_29  and  C_30
REMARK    9  A    between atoms: C_32  and  O_37
REMARK   10  A    between atoms: C_33  and  O_36
REMARK   11  A    between atoms: O_37  and  C_38
REMARK   12  A    between atoms: C_38  and  C_39
REMARK                            x       y       z     vdW  Elec       q    Type
REMARK                         _______ _______ _______ _____ _____    ______ ____
ROOT
ATOM      1  C   UNL     1      18.486 -41.933   8.667  0.00  0.00    +0.000 A 
ATOM      2  C   UNL     1      18.682 -43.300   8.353  0.00  0.00    +0.000 A 
ATOM      3  C   UNL     1      17.658 -44.196   8.309  0.00  0.00    +0.000 A 
ATOM      4  C   UNL     1      16.390 -43.675   8.598  0.00  0.00    +0.000 A 
ATOM      5  C   UNL     1      16.202 -42.364   8.899  0.00  0.00    +0.000 A 
ATOM      6  C   UNL     1      17.264 -41.442   8.944  0.00  0.00    +0.000 A 
ENDROOT
BRANCH   6   7
ATOM      7  N   UNL     1      16.986 -40.075   9.229  0.00  0.00    +0.000 N 
ATOM      8  C   UNL     1      16.694 -39.148   8.155  0.00  0.00    +0.000 C 
ATOM      9  C   UNL     1      17.442 -37.860   8.306  0.00  0.00    +0.000 C 
ATOM     10  S   UNL     1      17.773 -37.816  10.081  0.00  0.00    +0.000 S 
ATOM     11  C   UNL     1      16.897 -39.387  10.486  0.00  0.00    +0.000 C 
BRANCH  11  12
ATOM     12  C   UNL     1      15.541 -39.071  10.965  0.00  0.00    +0.000 A 
ATOM     13  C   UNL     1      14.992 -37.828  10.980  0.00  0.00    +0.000 A 
ATOM     14  C   UNL     1      13.672 -37.574  11.447  0.00  0.00    +0.000 A 
ATOM     15  C   UNL     1      12.919 -38.661  11.909  0.00  0.00    +0.000 A 
ATOM     16  C   UNL     1      13.472 -39.906  11.894  0.00  0.00    +0.000 A 
ATOM     17  C   UNL     1      14.750 -40.115  11.435  0.00  0.00    +0.000 A 
BRANCH  15  18
ATOM     18  O   UNL     1      11.610 -38.424  12.375  0.00  0.00    +0.000 OA
ATOM     19  H   UNL     1      11.470 -38.105  13.335  0.00  0.00    +0.000 HD
ENDBRANCH  15  18
BRANCH  14  20
ATOM     20  O   UNL     1      13.147 -36.382  11.461  0.00  0.00    +0.000 OA
BRANCH  20  21
ATOM     21  C   UNL     1      12.649 -35.199  11.325  0.00  0.00    +0.000 C 
ATOM     22  C   UNL     1      13.637 -34.022  11.320  0.00  0.00    +0.000 C 
ENDBRANCH  20  21
ENDBRANCH  14  20
ENDBRANCH  11  12
BRANCH   8  23
ATOM     23  C   UNL     1      16.912 -39.742   6.804  0.00  0.00    +0.000 C 
ATOM     24  O   UNL     1      16.175 -40.617   6.324  0.00  0.00    +0.000 OA
BRANCH  23  25
ATOM     25  O   UNL     1      17.996 -39.288   6.057  0.00  0.00    +0.000 OA
ATOM     26  H   UNL     1      18.961 -39.552   6.297  0.00  0.00    +0.000 HD
ENDBRANCH  23  25
ENDBRANCH   8  23
ENDBRANCH   6   7
BRANCH   3  27
ATOM     27  N   UNL     1      17.790 -45.564   7.989  0.00  0.00    +0.000 N 
ATOM     28  C   UNL     1      18.578 -46.120   6.962  0.00  0.00    +0.000 C 
ATOM     29  O   UNL     1      19.245 -45.378   6.220  0.00  0.00    +0.000 OA
ATOM     30  H   UNL     1      17.234 -46.255   8.595  0.00  0.00    +0.000 HD
BRANCH  28  31
ATOM     31  C   UNL     1      18.608 -47.630   6.772  0.00  0.00    +0.000 C 
ATOM     32 CL   UNL     1      19.535 -47.957   5.303  0.00  0.00    +0.000 Cl
ENDBRANCH  28  31
ENDBRANCH   3  27
BRANCH   1  33
ATOM     33  S   UNL     1      19.934 -40.991   8.788  0.00  0.00    +0.000 S 
ATOM     34  O   UNL     1      20.025 -39.941   7.704  0.00  0.00    +0.000 OA
ATOM     35  O   UNL     1      19.936 -40.314  10.169  0.00  0.00    +0.000 OA
BRANCH  33  36
ATOM     36  N   UNL     1      21.363 -41.877   8.720  0.00  0.00    +0.000 NA
ATOM     37  C   UNL     1      22.007 -41.915   7.498  0.00  0.00    +0.000 C 
ATOM     38  C   UNL     1      23.234 -42.815   7.455  0.00  0.00    +0.000 C 
ATOM     39  C   UNL     1      24.338 -42.359   8.370  0.00  0.00    +0.000 C 
ATOM     40  C   UNL     1      24.273 -42.986   9.753  0.00  0.00    +0.000 C 
ATOM     41  C   UNL     1      22.815 -43.125  10.125  0.00  0.00    +0.000 C 
ATOM     42  C   UNL     1      22.166 -41.775   9.864  0.00  0.00    +0.000 C 
ENDBRANCH  33  36
ENDBRANCH   1  33
TORSDOF 11
ENDMDL
