MODEL 1
REMARK VINA RESULT:    -9.539      0.000      0.000
REMARK INTER + INTRA:         -15.850
REMARK INTER:                 -14.000
REMARK INTRA:                  -1.850
REMARK UNBOUND:                -1.850
REMARK  Name = 
REMARK  9 active torsions:
REMARK  status: ('A' for Active; 'I' for Inactive)
REMARK    1  A    between atoms: N_3  and  C_20
REMARK    2  A    between atoms: N_6  and  C_7
REMARK    3  A    between atoms: C_10  and  C_12
REMARK    4  A    between atoms: C_12  and  N_13
REMARK    5  A    between atoms: N_13  and  C_14
REMARK    6  A    between atoms: C_14  and  C_15
REMARK    7  A    between atoms: C_20  and  N_21
REMARK    8  A    between atoms: C_31  and  C_34
REMARK    9  A    between atoms: C_34  and  C_35
REMARK                            x       y       z     vdW  Elec       q    Type
REMARK                         _______ _______ _______ _____ _____    ______ ____
ROOT
ATOM      1  C   UNL     1      18.084 -37.488  10.526  0.00  0.00    +0.000 C 
ENDROOT
BRANCH   1   2
ATOM      2  N   UNL     1      18.026 -38.293   9.339  0.00  0.00    +0.000 N 
ATOM      3  C   UNL     1      19.102 -38.356   8.381  0.00  0.00    +0.000 A 
ATOM      4  N   UNL     1      18.940 -39.019   7.231  0.00  0.00    +0.000 NA
ATOM      5  C   UNL     1      19.917 -39.120   6.339  0.00  0.00    +0.000 A 
ATOM      6  C   UNL     1      21.132 -38.524   6.605  0.00  0.00    +0.000 A 
ATOM      7  C   UNL     1      21.305 -37.837   7.795  0.00  0.00    +0.000 A 
ATOM      8  N   UNL     1      20.260 -37.786   8.638  0.00  0.00    +0.000 NA
ATOM      9  C   UNL     1      16.865 -39.078   9.014  0.00  0.00    +0.000 A 
ATOM     10  N   UNL     1      16.855 -39.831   7.911  0.00  0.00    +0.000 NA
ATOM     11  C   UNL     1      15.765 -40.575   7.557  0.00  0.00    +0.000 A 
ATOM     12  C   UNL     1      14.659 -40.550   8.349  0.00  0.00    +0.000 A 
ATOM     13  N   UNL     1      14.676 -39.794   9.453  0.00  0.00    +0.000 NA
ATOM     14  C   UNL     1      15.763 -39.044   9.816  0.00  0.00    +0.000 A 
BRANCH  12  15
ATOM     15  C   UNL     1      13.460 -41.319   8.008  0.00  0.00    +0.000 C 
BRANCH  15  16
ATOM     16  C   UNL     1      12.689 -41.856   9.178  0.00  0.00    +0.000 C 
ATOM     17  C   UNL     1      11.264 -42.143   8.788  0.00  0.00    +0.000 C 
ATOM     18  C   UNL     1      10.548 -42.946   9.853  0.00  0.00    +0.000 C 
ATOM     19  N   UNL     1      11.393 -43.163  11.031  0.00  0.00    +0.000 NA
ATOM     20  C   UNL     1      12.633 -43.836  10.672  0.00  0.00    +0.000 C 
ATOM     21  C   UNL     1      13.325 -43.218   9.503  0.00  0.00    +0.000 C 
ATOM     22  H   UNL     1      10.864 -43.866  11.622  0.00  0.00    +0.000 HD
ENDBRANCH  15  16
ENDBRANCH  12  15
ENDBRANCH   1   2
BRANCH   1  25
ATOM     23  C   UNL     1      17.697 -35.115   9.774  0.00  0.00    +0.000 A 
ATOM     24  O   UNL     1      18.736 -34.980   9.076  0.00  0.00    +0.000 OA
ATOM     25  N   UNL     1      17.371 -36.243  10.427  0.00  0.00    +0.000 N 
ATOM     26  C   UNL     1      16.181 -35.997  11.070  0.00  0.00    +0.000 A 
ATOM     27  C   UNL     1      15.810 -34.702  10.783  0.00  0.00    +0.000 A 
ATOM     28  N   UNL     1      16.760 -34.176   9.981  0.00  0.00    +0.000 N 
ATOM     29  C   UNL     1      16.761 -32.836   9.443  0.00  0.00    +0.000 C 
ATOM     30  C   UNL     1      14.631 -34.213  11.321  0.00  0.00    +0.000 A 
ATOM     31  C   UNL     1      13.870 -35.035  12.124  0.00  0.00    +0.000 A 
ATOM     32  C   UNL     1      14.226 -36.333  12.422  0.00  0.00    +0.000 A 
ATOM     33  C   UNL     1      15.402 -36.811  11.882  0.00  0.00    +0.000 A 
BRANCH  32  34
ATOM     34  C   UNL     1      13.356 -37.186  13.289  0.00  0.00    +0.000 C 
BRANCH  34  35
ATOM     35  N   UNL     1      12.154 -37.495  12.540  0.00  0.00    +0.000 NA
ATOM     36  H   UNL     1      11.310 -37.517  13.123  0.00  0.00    +0.000 HD
BRANCH  35  37
ATOM     37  C   UNL     1      12.336 -38.691  11.731  0.00  0.00    +0.000 C 
BRANCH  37  38
ATOM     38  C   UNL     1      12.528 -39.871  12.602  0.00  0.00    +0.000 A 
ATOM     39  O   UNL     1      11.660 -40.291  13.477  0.00  0.00    +0.000 OA
ATOM     40  C   UNL     1      12.104 -41.366  14.108  0.00  0.00    +0.000 A 
ATOM     41  C   UNL     1      13.367 -41.670  13.601  0.00  0.00    +0.000 A 
ATOM     42  C   UNL     1      13.634 -40.713  12.640  0.00  0.00    +0.000 A 
ENDBRANCH  37  38
ENDBRANCH  35  37
ENDBRANCH  34  35
ENDBRANCH  32  34
ENDBRANCH   1  25
TORSDOF 8
ENDMDL
