MODEL 1
REMARK VINA RESULT:    -8.767      0.000      0.000
REMARK INTER + INTRA:         -19.072
REMARK INTER:                 -15.942
REMARK INTRA:                  -3.130
REMARK UNBOUND:                -3.130
REMARK  Name = 
REMARK  16 active torsions:
REMARK  status: ('A' for Active; 'I' for Inactive)
REMARK    1  A    between atoms: S_1  and  N_4
REMARK    2  A    between atoms: S_1  and  C_10
REMARK    3  A    between atoms: N_4  and  C_5
REMARK    4  A    between atoms: C_5  and  C_6
REMARK    5  A    between atoms: C_5  and  C_9
REMARK    6  A    between atoms: C_6  and  O_8
REMARK    7  A    between atoms: C_19  and  N_20
REMARK    8  A    between atoms: C_24  and  C_27
REMARK    9  A    between atoms: C_24  and  C_32
REMARK   10  A    between atoms: C_27  and  C_28
REMARK   11  A    between atoms: C_28  and  C_29
REMARK   12  A    between atoms: C_29  and  O_31
REMARK   13  A    between atoms: C_32  and  N_33
REMARK   14  A    between atoms: C_36  and  C_37
REMARK   15  A    between atoms: C_37  and  C_38
REMARK   16  A    between atoms: C_38  and  C_39
REMARK                            x       y       z     vdW  Elec       q    Type
REMARK                         _______ _______ _______ _____ _____    ______ ____
ROOT
ATOM      1  N   UNL     1      21.563 -44.309   7.106  0.00  0.00    +0.000 N 
ATOM      2  C   UNL     1      22.294 -44.218   5.925  0.00  0.00    +0.000 C 
ATOM      3  O   UNL     1      21.910 -44.415   4.724  0.00  0.00    +0.000 OA
ATOM      4  N   UNL     1      23.642 -43.839   6.272  0.00  0.00    +0.000 N 
ATOM      5  C   UNL     1      23.546 -43.109   7.571  0.00  0.00    +0.000 C 
ATOM      6  C   UNL     1      22.488 -43.978   8.174  0.00  0.00    +0.000 C 
ATOM      7  O   UNL     1      22.441 -44.325   9.361  0.00  0.00    +0.000 OA
ATOM      8  H   UNL     1      24.485 -44.017   5.765  0.00  0.00    +0.000 HD
ENDROOT
BRANCH   1  18
ATOM      9  C   UNL     1      19.793 -45.918   7.509  0.00  0.00    +0.000 A 
ATOM     10  C   UNL     1      18.450 -46.112   7.857  0.00  0.00    +0.000 A 
ATOM     11  C   UNL     1      17.554 -45.098   8.046  0.00  0.00    +0.000 A 
ATOM     12  C   UNL     1      17.977 -43.788   7.890  0.00  0.00    +0.000 A 
ATOM     13  O   UNL     1      17.072 -42.726   8.079  0.00  0.00    +0.000 OA
ATOM     14  C   UNL     1      16.060 -42.925   9.073  0.00  0.00    +0.000 C 
ATOM     15  C   UNL     1      15.428 -44.276   8.981  0.00  0.00    +0.000 C 
ATOM     16  O   UNL     1      16.223 -45.258   8.388  0.00  0.00    +0.000 OA
ATOM     17  C   UNL     1      19.282 -43.577   7.552  0.00  0.00    +0.000 A 
ATOM     18  C   UNL     1      20.218 -44.624   7.357  0.00  0.00    +0.000 A 
BRANCH   9  19
ATOM     19  S   UNL     1      20.748 -47.335   7.187  0.00  0.00    +0.000 S 
ATOM     20  O   UNL     1      21.971 -47.422   8.086  0.00  0.00    +0.000 OA
ATOM     21  O   UNL     1      19.963 -48.599   7.408  0.00  0.00    +0.000 OA
BRANCH  19  22
ATOM     22  N   UNL     1      21.348 -47.390   5.561  0.00  0.00    +0.000 NA
ATOM     23  H   UNL     1      21.473 -46.440   5.171  0.00  0.00    +0.000 HD
BRANCH  22  24
ATOM     24  C   UNL     1      22.557 -48.191   5.494  0.00  0.00    +0.000 C 
ATOM     25  C   UNL     1      23.569 -47.415   4.620  0.00  0.00    +0.000 C 
BRANCH  24  26
ATOM     26  C   UNL     1      22.291 -49.437   4.783  0.00  0.00    +0.000 C 
ATOM     27  O   UNL     1      22.797 -49.879   3.752  0.00  0.00    +0.000 OA
BRANCH  26  28
ATOM     28  O   UNL     1      21.295 -50.266   5.375  0.00  0.00    +0.000 OA
ATOM     29  H   UNL     1      21.068 -50.093   6.358  0.00  0.00    +0.000 HD
ENDBRANCH  26  28
ENDBRANCH  24  26
ENDBRANCH  22  24
ENDBRANCH  19  22
ENDBRANCH   9  19
ENDBRANCH   1  18
BRANCH   5  30
ATOM     30  C   UNL     1      24.870 -43.173   8.205  0.00  0.00    +0.000 C 
BRANCH  30  31
ATOM     31  C   UNL     1      25.584 -44.480   7.872  0.00  0.00    +0.000 C 
BRANCH  31  32
ATOM     32  C   UNL     1      27.015 -44.160   7.527  0.00  0.00    +0.000 C 
ATOM     33  O   UNL     1      27.809 -43.763   8.399  0.00  0.00    +0.000 OA
BRANCH  32  34
ATOM     34  O   UNL     1      27.453 -44.308   6.227  0.00  0.00    +0.000 OA
ATOM     35  H   UNL     1      28.206 -44.896   5.927  0.00  0.00    +0.000 HD
ENDBRANCH  32  34
ENDBRANCH  31  32
ENDBRANCH  30  31
ENDBRANCH   5  30
BRANCH   5  36
ATOM     36  C   UNL     1      23.030 -41.768   7.188  0.00  0.00    +0.000 C 
BRANCH  36  37
ATOM     37  N   UNL     1      23.307 -40.641   7.980  0.00  0.00    +0.000 NA
ATOM     38  C   UNL     1      22.623 -40.909   9.286  0.00  0.00    +0.000 C 
ATOM     39  C   UNL     1      21.206 -40.393   9.111  0.00  0.00    +0.000 C 
ATOM     40  C   UNL     1      21.266 -38.895   9.356  0.00  0.00    +0.000 C 
ATOM     41  C   UNL     1      22.496 -38.412   8.617  0.00  0.00    +0.000 C 
ATOM     42  C   UNL     1      22.921 -39.361   7.500  0.00  0.00    +0.000 C 
BRANCH  40  43
ATOM     43  C   UNL     1      20.029 -38.183   8.942  0.00  0.00    +0.000 C 
BRANCH  43  44
ATOM     44  C   UNL     1      18.740 -38.830   9.311  0.00  0.00    +0.000 C 
BRANCH  44  45
ATOM     45  C   UNL     1      17.832 -37.999  10.126  0.00  0.00    +0.000 A 
ATOM     46  C   UNL     1      16.616 -38.464  10.510  0.00  0.00    +0.000 A 
ATOM     47  F   UNL     1      16.153 -39.706  10.175  0.00  0.00    +0.000 F 
ATOM     48  C   UNL     1      15.779 -37.680  11.277  0.00  0.00    +0.000 A 
ATOM     49  C   UNL     1      16.179 -36.417  11.655  0.00  0.00    +0.000 A 
ATOM     50  C   UNL     1      17.403 -35.931  11.276  0.00  0.00    +0.000 A 
ATOM     51  C   UNL     1      18.227 -36.740  10.504  0.00  0.00    +0.000 A 
ENDBRANCH  44  45
ENDBRANCH  43  44
ENDBRANCH  40  43
ENDBRANCH  36  37
ENDBRANCH   5  36
TORSDOF 15
ENDMDL
