REMARK  Name = =
REMARK  0 active torsions:
REMARK  status: ('A' for Active; 'I' for Inactive)
REMARK                            x       y       z     vdW  Elec       q    Type
REMARK                         _______ _______ _______ _____ _____    ______ ____
ROOT
ATOM      1  C   UNL     1     -13.542 -43.731  29.148  0.00  0.00    +0.003 C 
ATOM      2  C   UNL     1     -12.259 -43.379  29.522  0.00  0.00    +0.042 C 
ATOM      3  C   UNL     1     -11.531 -42.630  28.621  0.00  0.00    +0.042 C 
ATOM      4  C   UNL     1     -12.072 -42.257  27.402  0.00  0.00    +0.003 C 
ATOM      5  C   UNL     1     -13.353 -42.613  27.034  0.00  0.00    +0.000 C 
ATOM      6  C   UNL     1     -14.089 -43.364  27.933  0.00  0.00    +0.000 C 
ATOM      7  C   UNL     1     -10.177 -42.254  29.011  0.00  0.00    +0.196 C 
ATOM      8  O   UNL     1      -9.503 -41.566  28.187  0.00  0.00    -0.287 OA
ATOM      9  C   UNL     1      -9.610 -42.650  30.297  0.00  0.00    +0.042 C 
ATOM     10  C   UNL     1     -10.336 -43.399  31.201  0.00  0.00    +0.042 C 
ATOM     11  C   UNL     1      -9.791 -43.771  32.420  0.00  0.00    +0.003 C 
ATOM     12  C   UNL     1      -8.509 -43.413  32.783  0.00  0.00    +0.000 C 
ATOM     13  C   UNL     1      -7.784 -42.663  31.877  0.00  0.00    +0.000 C 
ATOM     14  C   UNL     1      -8.320 -42.285  30.652  0.00  0.00    +0.003 C 
ATOM     15  C   UNL     1     -11.689 -43.774  30.809  0.00  0.00    +0.196 C 
ATOM     16  O   UNL     1     -12.383 -44.459  31.609  0.00  0.00    -0.287 OA
ENDROOT
TORSDOF 0
