REMARK  Name = =
REMARK  1 active torsions:
REMARK  status: ('A' for Active; 'I' for Inactive)
REMARK    1  A    between atoms: C_5  and  C_8
REMARK                            x       y       z     vdW  Elec       q    Type
REMARK                         _______ _______ _______ _____ _____    ______ ____
ROOT
ATOM      1  C   UNL     1      -2.733  -6.304  31.374  0.00  0.00    +0.074 C 
ATOM      2  C   UNL     1      -1.989  -7.101  30.400  0.00  0.00    +0.140 C 
ATOM      3  N   UNL     1      -1.725  -8.392  30.412  0.00  0.00    -0.229 NA
ATOM      4  C   UNL     1      -1.060  -9.172  29.607  0.00  0.00    +0.110 C 
ATOM      5  C   UNL     1      -0.467  -8.463  28.429  0.00  0.00    +0.081 C 
ATOM      6  C   UNL     1      -0.756  -7.153  28.442  0.00  0.00    +0.110 C 
ATOM      7  N   UNL     1      -1.441  -6.426  29.292  0.00  0.00    -0.229 NA
ENDROOT
BRANCH   5   8
ATOM      8  C   UNL     1       0.416  -9.168  27.585  0.00  0.00    -0.048 C 
ATOM      9  C   UNL     1       1.227  -9.790  26.834  0.00  0.00    -0.009 C 
ENDBRANCH   5   8
TORSDOF 1
