REMARK  Name = =
REMARK  6 active torsions:
REMARK  status: ('A' for Active; 'I' for Inactive)
REMARK    1  A    between atoms: C_1  and  C_7
REMARK    2  A    between atoms: C_1  and  C_11
REMARK    3  A    between atoms: C_6  and  C_9
REMARK    4  A    between atoms: C_11  and  O_12
REMARK    5  A    between atoms: C_11  and  C_13
REMARK    6  A    between atoms: C_13  and  N_14
REMARK                            x       y       z     vdW  Elec       q    Type
REMARK                         _______ _______ _______ _____ _____    ______ ____
ROOT
ATOM      1  C   UNL     1       0.796  -5.835  29.020  0.00  0.00    +0.077 C 
ENDROOT
BRANCH   1   7
ATOM      2  C   UNL     1       2.264  -8.104  24.992  0.00  0.00    +0.074 C 
ATOM      3  C   UNL     1       1.481  -8.155  26.254  0.00  0.00    +0.139 C 
ATOM      4  N   UNL     1       0.774  -9.254  26.582  0.00  0.00    -0.229 NA
ATOM      5  C   UNL     1       0.077  -9.296  27.705  0.00  0.00    +0.110 C 
ATOM      6  C   UNL     1       0.085  -8.182  28.543  0.00  0.00    +0.075 C 
ATOM      7  C   UNL     1       0.797  -7.063  28.218  0.00  0.00    +0.072 C 
ATOM      8  N   UNL     1       1.506  -7.074  27.039  0.00  0.00    -0.234 NA
BRANCH   6   9
ATOM      9  C   UNL     1      -0.638  -8.295  29.762  0.00  0.00    -0.048 C 
ATOM     10  C   UNL     1      -1.270  -8.389  30.792  0.00  0.00    -0.009 C 
ENDBRANCH   6   9
ENDBRANCH   1   7
BRANCH   1  11
ATOM     11  C   UNL     1      -0.131  -4.760  28.548  0.00  0.00    +0.132 C 
BRANCH  11  12
ATOM     12  O   UNL     1      -0.210  -4.861  27.138  0.00  0.00    -0.383 OA
ATOM     13  H   UNL     1       0.682  -4.817  26.760  0.00  0.00    +0.210 HD
ENDBRANCH  11  12
BRANCH  11  14
ATOM     14  C   UNL     1      -1.474  -4.824  29.158  0.00  0.00    +0.102 C 
BRANCH  14  15
ATOM     15  N   UNL     1      -2.287  -3.651  28.826  0.00  0.00    -0.266 NA
ATOM     16  C   UNL     1      -1.600  -2.419  29.142  0.00  0.00    +0.105 C 
ATOM     17  C   UNL     1      -2.530  -1.228  29.062  0.00  0.00    +0.159 C 
ATOM     18  O   UNL     1      -3.603  -1.339  29.934  0.00  0.00    -0.351 OA
ATOM     19  C   UNL     1      -3.744  -2.596  30.497  0.00  0.00    +0.159 C 
ATOM     20  C   UNL     1      -3.538  -3.721  29.510  0.00  0.00    +0.105 C 
ENDBRANCH  14  15
ENDBRANCH  11  14
ENDBRANCH   1  11
TORSDOF 6
