REMARK  Name = =
REMARK  9 active torsions:
REMARK  status: ('A' for Active; 'I' for Inactive)
REMARK    1  A    between atoms: C_1  and  C_9
REMARK    2  A    between atoms: C_4  and  C_7
REMARK    3  A    between atoms: C_5  and  C_18
REMARK    4  A    between atoms: C_9  and  C_10
REMARK    5  A    between atoms: C_10  and  N_11
REMARK    6  A    between atoms: C_18  and  C_19
REMARK    7  A    between atoms: C_19  and  O_20
REMARK    8  A    between atoms: C_19  and  C_21
REMARK    9  A    between atoms: C_21  and  N_22
REMARK                            x       y       z     vdW  Elec       q    Type
REMARK                         _______ _______ _______ _____ _____    ______ ____
ROOT
ATOM      1  C   UNL     1       3.285  -7.463  26.960  0.00  0.00    +0.141 C 
ATOM      2  N   UNL     1       2.642  -8.610  26.573  0.00  0.00    -0.228 NA
ATOM      3  C   UNL     1       1.538  -9.048  27.152  0.00  0.00    +0.110 C 
ATOM      4  C   UNL     1       0.977  -8.327  28.210  0.00  0.00    +0.075 C 
ATOM      5  C   UNL     1       1.593  -7.203  28.601  0.00  0.00    +0.072 C 
ATOM      6  N   UNL     1       2.745  -6.806  27.950  0.00  0.00    -0.234 NA
ENDROOT
BRANCH   4   7
ATOM      7  C   UNL     1      -0.295  -8.832  28.788  0.00  0.00    -0.048 C 
ATOM      8  C   UNL     1      -1.190  -9.192  29.210  0.00  0.00    -0.009 C 
ENDBRANCH   4   7
BRANCH   1   9
ATOM      9  C   UNL     1       4.553  -7.066  26.246  0.00  0.00    +0.087 C 
BRANCH   9  10
ATOM     10  C   UNL     1       4.922  -8.070  25.221  0.00  0.00    +0.102 C 
BRANCH  10  11
ATOM     11  N   UNL     1       6.053  -8.944  25.586  0.00  0.00    -0.275 N 
ATOM     12  C   UNL     1       6.158 -10.025  26.514  0.00  0.00    +0.181 C 
ATOM     13  C   UNL     1       7.626 -10.381  26.414  0.00  0.00    +0.268 C 
ATOM     14  O   UNL     1       8.229 -11.203  27.177  0.00  0.00    -0.271 OA
ATOM     15  N   UNL     1       8.160  -9.629  25.331  0.00  0.00    -0.150 NA
ATOM     16  C   UNL     1       7.272  -8.844  24.888  0.00  0.00    +0.174 C 
ATOM     17  N   UNL     1       7.538  -7.944  23.753  0.00  0.00    -0.333 N 
ATOM     18  H   UNL     1       8.424  -7.941  23.324  0.00  0.00    +0.145 HD
ATOM     19  H   UNL     1       6.830  -7.345  23.423  0.00  0.00    +0.145 HD
ENDBRANCH  10  11
ENDBRANCH   9  10
ENDBRANCH   1   9
BRANCH   5  20
ATOM     20  C   UNL     1       1.090  -6.328  29.674  0.00  0.00    +0.077 C 
BRANCH  20  21
ATOM     21  C   UNL     1      -0.228  -5.676  29.288  0.00  0.00    +0.132 C 
BRANCH  21  22
ATOM     22  O   UNL     1       0.128  -4.419  28.748  0.00  0.00    -0.383 OA
ATOM     23  H   UNL     1       0.614  -4.549  27.919  0.00  0.00    +0.210 HD
ENDBRANCH  21  22
BRANCH  21  24
ATOM     24  C   UNL     1      -0.977  -5.289  30.574  0.00  0.00    +0.102 C 
BRANCH  24  25
ATOM     25  N   UNL     1      -2.210  -4.680  30.429  0.00  0.00    -0.266 NA
ATOM     26  C   UNL     1      -2.383  -3.270  30.554  0.00  0.00    +0.105 C 
ATOM     27  C   UNL     1      -3.609  -2.844  29.736  0.00  0.00    +0.159 C 
ATOM     28  O   UNL     1      -4.632  -3.779  29.890  0.00  0.00    -0.351 OA
ATOM     29  C   UNL     1      -4.518  -4.497  31.062  0.00  0.00    +0.159 C 
ATOM     30  C   UNL     1      -3.333  -5.419  30.980  0.00  0.00    +0.105 C 
ENDBRANCH  24  25
ENDBRANCH  21  24
ENDBRANCH  20  21
ENDBRANCH   5  20
TORSDOF 9
