REMARK  Name = =
REMARK  13 active torsions:
REMARK  status: ('A' for Active; 'I' for Inactive)
REMARK    1  A    between atoms: C_1  and  C_9
REMARK    2  A    between atoms: C_4  and  C_7
REMARK    3  A    between atoms: C_5  and  C_25
REMARK    4  A    between atoms: C_9  and  C_10
REMARK    5  A    between atoms: C_10  and  N_11
REMARK    6  A    between atoms: C_16  and  N_17
REMARK    7  A    between atoms: N_17  and  O_18
REMARK    8  A    between atoms: O_18  and  C_19
REMARK    9  A    between atoms: C_19  and  C_20
REMARK   10  A    between atoms: C_25  and  C_26
REMARK   11  A    between atoms: C_26  and  O_27
REMARK   12  A    between atoms: C_26  and  C_28
REMARK   13  A    between atoms: C_28  and  N_29
REMARK                            x       y       z     vdW  Elec       q    Type
REMARK                         _______ _______ _______ _____ _____    ______ ____
ROOT
ATOM      1  C   UNL     1       2.197  -8.914  27.536  0.00  0.00    +0.140 C 
ATOM      2  N   UNL     1       3.518  -9.037  27.305  0.00  0.00    -0.228 NA
ATOM      3  C   UNL     1       4.393  -8.045  27.227  0.00  0.00    +0.110 C 
ATOM      4  C   UNL     1       3.908  -6.760  27.402  0.00  0.00    +0.075 C 
ATOM      5  C   UNL     1       2.564  -6.586  27.641  0.00  0.00    +0.072 C 
ATOM      6  N   UNL     1       1.714  -7.657  27.707  0.00  0.00    -0.234 NA
ENDROOT
BRANCH   4   7
ATOM      7  C   UNL     1       4.786  -5.600  27.327  0.00  0.00    -0.048 C 
ATOM      8  C   UNL     1       5.438  -4.735  27.267  0.00  0.00    -0.009 C 
ENDBRANCH   4   7
BRANCH   1   9
ATOM      9  C   UNL     1       1.319 -10.106  27.603  0.00  0.00    +0.083 C 
BRANCH   9  10
ATOM     10  C   UNL     1       0.480 -10.359  26.390  0.00  0.00    +0.083 C 
BRANCH  10  11
ATOM     11  N   UNL     1       1.161 -10.417  25.146  0.00  0.00    -0.234 NA
ATOM     12  C   UNL     1       1.553  -9.380  24.187  0.00  0.00    +0.163 C 
ATOM     13  C   UNL     1       2.857  -9.940  23.764  0.00  0.00    +0.260 C 
ATOM     14  O   UNL     1       3.888  -9.318  23.475  0.00  0.00    -0.272 OA
ATOM     15  N   UNL     1       2.659 -11.347  23.764  0.00  0.00    -0.172 NA
ATOM     16  C   UNL     1       1.669 -11.642  24.565  0.00  0.00    +0.239 C 
BRANCH  16  17
ATOM     17  N   UNL     1       1.208 -12.967  24.791  0.00  0.00    -0.157 NA
ATOM     18  H   UNL     1       0.234 -12.979  24.488  0.00  0.00    +0.158 HD
BRANCH  17  19
ATOM     19  O   UNL     1       1.778 -14.056  24.240  0.00  0.00    -0.277 OA
BRANCH  19  20
ATOM     20  C   UNL     1       1.026 -14.501  23.151  0.00  0.00    +0.209 C 
BRANCH  20  21
ATOM     21  C   UNL     1       1.737 -15.602  22.434  0.00  0.00    +0.076 C 
ATOM     22  C   UNL     1       2.895 -16.261  22.794  0.00  0.00    +0.036 C 
ATOM     23  C   UNL     1       3.195 -17.203  21.824  0.00  0.00    +0.119 C 
ATOM     24  N   UNL     1       2.212 -17.091  20.905  0.00  0.00    -0.180 NA
ATOM     25  N   UNL     1       1.346 -16.146  21.262  0.00  0.00    -0.237 N 
ATOM     26  H   UNL     1       0.546 -15.885  20.752  0.00  0.00    +0.174 HD
ENDBRANCH  20  21
ENDBRANCH  19  20
ENDBRANCH  17  19
ENDBRANCH  16  17
ENDBRANCH  10  11
ENDBRANCH   9  10
ENDBRANCH   1   9
BRANCH   5  27
ATOM     27  C   UNL     1       2.073  -5.201  27.848  0.00  0.00    +0.077 C 
BRANCH  27  28
ATOM     28  C   UNL     1       0.579  -5.056  27.658  0.00  0.00    +0.132 C 
BRANCH  28  29
ATOM     29  O   UNL     1       0.285  -5.716  26.463  0.00  0.00    -0.383 OA
ATOM     30  H   UNL     1      -0.667  -5.657  26.287  0.00  0.00    +0.210 HD
ENDBRANCH  28  29
BRANCH  28  31
ATOM     31  C   UNL     1       0.264  -3.607  27.569  0.00  0.00    +0.102 C 
BRANCH  31  32
ATOM     32  N   UNL     1       0.005  -2.935  28.772  0.00  0.00    -0.266 NA
ATOM     33  C   UNL     1      -0.095  -1.523  28.706  0.00  0.00    +0.105 C 
ATOM     34  C   UNL     1      -1.512  -1.123  28.379  0.00  0.00    +0.159 C 
ATOM     35  O   UNL     1      -2.444  -2.029  28.816  0.00  0.00    -0.351 OA
ATOM     36  C   UNL     1      -2.081  -2.724  29.946  0.00  0.00    +0.159 C 
ATOM     37  C   UNL     1      -0.818  -3.540  29.749  0.00  0.00    +0.105 C 
ENDBRANCH  31  32
ENDBRANCH  28  31
ENDBRANCH  27  28
ENDBRANCH   5  27
TORSDOF 13
