MODEL 1
REMARK VINA RESULT:   -10.422      0.000      0.000
REMARK INTER + INTRA:         -11.144
REMARK INTER:                 -13.164
REMARK INTRA:                   2.020
REMARK UNBOUND:                 2.020
REMARK  Name = =
REMARK  5 active torsions:
REMARK  status: ('A' for Active; 'I' for Inactive)
REMARK    1  A    between atoms: C_1  and  C_32
REMARK    2  A    between atoms: C_2  and  N_7
REMARK    3  A    between atoms: C_3  and  O_43
REMARK    4  A    between atoms: C_15  and  C_16
REMARK    5  A    between atoms: C_17  and  C_22
REMARK                            x       y       z     vdW  Elec       q    Type
REMARK                         _______ _______ _______ _____ _____    ______ ____
ROOT
ATOM      1  C   UNL     1       2.210  -5.801  27.753  0.00  0.00    +0.098 C 
ATOM      2  C   UNL     1       0.858  -5.917  27.585  0.00  0.00    +0.107 C 
ATOM      3  C   UNL     1       0.286  -7.137  27.358  0.00  0.00    +0.150 C 
ATOM      4  C   UNL     1       1.066  -8.255  27.292  0.00  0.00    +0.059 C 
ATOM      5  C   UNL     1       2.430  -8.142  27.458  0.00  0.00    +0.102 C 
ATOM      6  N   UNL     1       2.959  -6.927  27.681  0.00  0.00    -0.242 NA
ENDROOT
BRANCH   1  12
ATOM      7  C   UNL     1       3.000  -3.540  27.030  0.00  0.00    +0.016 C 
ATOM      8  C   UNL     1       4.118  -3.056  26.496  0.00  0.00    +0.043 C 
ATOM      9  N   UNL     1       5.350  -3.504  27.027  0.00  0.00    -0.312 N 
ATOM     10  C   UNL     1       5.380  -4.440  28.096  0.00  0.00    +0.062 C 
ATOM     11  C   UNL     1       4.289  -4.895  28.597  0.00  0.00    +0.017 C 
ATOM     12  C   UNL     1       2.915  -4.497  28.112  0.00  0.00    +0.021 C 
ATOM     13  C   UNL     1       4.096  -2.085  25.393  0.00  0.00    -0.002 C 
ATOM     14  C   UNL     1       5.249  -1.436  25.008  0.00  0.00    +0.151 C 
ATOM     15  N   UNL     1       5.305  -0.529  24.009  0.00  0.00    -0.250 NA
ATOM     16  C   UNL     1       4.210  -0.215  23.332  0.00  0.00    +0.147 C 
ATOM     17  N   UNL     1       4.265   0.688  22.338  0.00  0.00    -0.174 NA
ATOM     18  C   UNL     1       3.146   1.015  21.638  0.00  0.00    +0.187 C 
ATOM     19  N   UNL     1       2.007   0.412  21.973  0.00  0.00    -0.225 NA
ATOM     20  C   UNL     1       1.897  -0.488  22.949  0.00  0.00    +0.099 C 
ATOM     21  C   UNL     1       3.021  -0.841  23.680  0.00  0.00    +0.034 C 
ATOM     22  C   UNL     1       2.961  -1.766  24.697  0.00  0.00    +0.056 C 
ATOM     23  H   UNL     1       6.194  -3.163  26.653  0.00  0.00    +0.152 HD
ENDBRANCH   1  12
BRANCH   2  24
ATOM     24  N   UNL     1       0.054  -4.762  27.750  0.00  0.00    -0.261 N 
ATOM     25  C   UNL     1      -0.833  -4.427  28.696  0.00  0.00    +0.052 C 
ATOM     26  C   UNL     1      -1.419  -3.213  28.346  0.00  0.00    +0.015 C 
ATOM     27  C   UNL     1      -0.851  -2.809  27.149  0.00  0.00    +0.018 C 
ATOM     28  C   UNL     1       0.031  -3.755  26.809  0.00  0.00    +0.070 C 
ATOM     29  C   UNL     1      -2.412  -2.629  29.102  0.00  0.00    +0.001 C 
ATOM     30  C   UNL     1      -2.849  -3.256  30.239  0.00  0.00    -0.000 C 
ATOM     31  C   UNL     1      -2.294  -4.452  30.615  0.00  0.00    -0.003 C 
ATOM     32  C   UNL     1      -1.287  -5.042  29.859  0.00  0.00    -0.008 C 
BRANCH  32  33
ATOM     33  C   UNL     1      -0.654  -6.281  30.346  0.00  0.00    +0.030 C 
ATOM     34  C   UNL     1      -1.819  -7.238  30.683  0.00  0.00    +0.050 C 
ATOM     35  C   UNL     1      -1.121  -8.591  30.902  0.00  0.00    +0.007 C 
ATOM     36  C   UNL     1      -0.605  -8.510  32.319  0.00  0.00    +0.000 C 
ATOM     37  C   UNL     1       0.140  -7.266  32.601  0.00  0.00    +0.000 C 
ATOM     38  C   UNL     1       0.255  -6.251  31.511  0.00  0.00    +0.005 C 
BRANCH  34  39
ATOM     39  C   UNL     1      -2.456  -6.931  31.984  0.00  0.00    +0.079 C 
ATOM     40  N   UNL     1      -2.170  -6.365  33.040  0.00  0.00    -0.268 NA
ATOM     41  C   UNL     1      -3.051  -6.260  34.097  0.00  0.00    +0.138 C 
ATOM     42  C   UNL     1      -4.497  -6.264  33.586  0.00  0.00    +0.090 C 
ATOM     43  S   UNL     1      -4.190  -7.456  32.206  0.00  0.00    -0.098 S 
ENDBRANCH  34  39
ENDBRANCH  32  33
ENDBRANCH   2  24
BRANCH   3  44
ATOM     44  O   UNL     1      -1.107  -7.276  27.184  0.00  0.00    -0.504 OA
ATOM     45  H   UNL     1      -1.455  -8.056  26.799  0.00  0.00    +0.292 HD
ENDBRANCH   3  44
TORSDOF 5
ENDMDL
