MODEL 1
REMARK VINA RESULT:    -8.631      0.000      0.000
REMARK INTER + INTRA:         -11.725
REMARK INTER:                 -11.911
REMARK INTRA:                   0.186
REMARK UNBOUND:                 0.186
REMARK  Name = =
REMARK  7 active torsions:
REMARK  status: ('A' for Active; 'I' for Inactive)
REMARK    1  A    between atoms: C_1  and  C_13
REMARK    2  A    between atoms: C_3  and  C_32
REMARK    3  A    between atoms: N_7  and  O_41
REMARK    4  A    between atoms: C_11  and  N_21
REMARK    5  A    between atoms: C_11  and  N_26
REMARK    6  A    between atoms: C_19  and  O_31
REMARK    7  A    between atoms: O_41  and  C_42
REMARK                            x       y       z     vdW  Elec       q    Type
REMARK                         _______ _______ _______ _____ _____    ______ ____
ROOT
ATOM      1  C   UNL     1       3.154  -6.274  26.798  0.00  0.00    +0.094 C 
ATOM      2  N   UNL     1       3.225  -7.617  26.804  0.00  0.00    -0.245 NA
ATOM      3  C   UNL     1       4.116  -8.315  26.048  0.00  0.00    +0.100 C 
ATOM      4  C   UNL     1       4.981  -7.620  25.241  0.00  0.00    +0.119 C 
ATOM      5  N   UNL     1       4.933  -6.294  25.215  0.00  0.00    -0.223 NA
ATOM      6  C   UNL     1       4.032  -5.629  25.983  0.00  0.00    +0.188 C 
ATOM      7  N   UNL     1       4.082  -4.223  25.889  0.00  0.00    -0.062 N 
ATOM      8  C   UNL     1       4.084  -3.596  24.636  0.00  0.00    +0.338 C 
ATOM      9  O   UNL     1       4.043  -4.210  23.537  0.00  0.00    -0.249 OA
ATOM     10  N   UNL     1       4.135  -2.180  24.571  0.00  0.00    -0.311 N 
ATOM     11  H   UNL     1       4.169  -1.650  25.401  0.00  0.00    +0.147 HD
ATOM     12  H   UNL     1       4.138  -1.727  23.698  0.00  0.00    +0.147 HD
ENDROOT
BRANCH   1  15
ATOM     13  C   UNL     1       0.820  -5.929  29.759  0.00  0.00    +0.127 C 
ATOM     14  C   UNL     1       1.988  -6.313  28.926  0.00  0.00    +0.045 C 
ATOM     15  C   UNL     1       2.189  -5.566  27.626  0.00  0.00    +0.051 C 
ATOM     16  C   UNL     1       0.776  -5.485  27.016  0.00  0.00    +0.032 C 
ATOM     17  C   UNL     1       0.138  -4.493  27.901  0.00  0.00    -0.020 C 
ATOM     18  C   UNL     1       0.199  -4.693  29.259  0.00  0.00    +0.004 C 
ATOM     19  C   UNL     1      -0.365  -3.729  30.118  0.00  0.00    +0.001 C 
ATOM     20  C   UNL     1      -0.966  -2.608  29.592  0.00  0.00    +0.036 C 
ATOM     21  C   UNL     1      -1.023  -2.420  28.226  0.00  0.00    +0.133 C 
ATOM     22  C   UNL     1      -0.461  -3.379  27.387  0.00  0.00    +0.032 C 
BRANCH  13  23
ATOM     23  N   UNL     1      -0.179  -7.024  29.648  0.00  0.00    -0.265 N 
ATOM     24  C   UNL     1      -1.447  -6.928  30.221  0.00  0.00    +0.227 C 
ATOM     25  O   UNL     1      -2.254  -7.914  30.055  0.00  0.00    -0.275 OA
ATOM     26  C   UNL     1      -2.019  -5.831  31.018  0.00  0.00    +0.095 C 
ATOM     27  C   UNL     1       0.197  -8.209  28.897  0.00  0.00    +0.116 C 
ENDBRANCH  13  23
BRANCH  13  28
ATOM     28  N   UNL     1       1.172  -5.919  31.125  0.00  0.00    -0.257 NA
ATOM     29  C   UNL     1       2.025  -4.960  31.653  0.00  0.00    +0.074 C 
ATOM     30  C   UNL     1       2.732  -5.590  32.849  0.00  0.00    +0.019 C 
ATOM     31  C   UNL     1       1.781  -6.730  33.200  0.00  0.00    +0.019 C 
ATOM     32  C   UNL     1       0.962  -7.012  31.949  0.00  0.00    +0.074 C 
ENDBRANCH  13  28
BRANCH  21  33
ATOM     33  O   UNL     1      -1.626  -1.301  27.699  0.00  0.00    -0.506 OA
ATOM     34  H   UNL     1      -2.558  -1.267  27.615  0.00  0.00    +0.292 HD
ENDBRANCH  21  33
ENDBRANCH   1  15
BRANCH   3  35
ATOM     35  C   UNL     1       4.137  -9.785  26.130  0.00  0.00    +0.019 C 
ATOM     36  C   UNL     1       2.929 -10.442  26.266  0.00  0.00    -0.002 C 
ATOM     37  C   UNL     1       2.872 -11.828  26.367  0.00  0.00    -0.009 C 
ATOM     38  C   UNL     1       4.015 -12.590  26.336  0.00  0.00    -0.009 C 
ATOM     39  C   UNL     1       5.224 -11.944  26.199  0.00  0.00    -0.003 C 
ATOM     40  C   UNL     1       5.264 -10.548  26.099  0.00  0.00    +0.001 C 
ATOM     41  C   UNL     1       3.640 -14.043  26.477  0.00  0.00    +0.096 C 
ATOM     42  N   UNL     1       2.341 -13.923  27.143  0.00  0.00    -0.290 NA
ATOM     43  C   UNL     1       1.734 -12.767  26.514  0.00  0.00    +0.096 C 
ATOM     44  H   UNL     1       2.460 -13.770  28.144  0.00  0.00    +0.124 HD
ENDBRANCH   3  35
BRANCH   7  45
ATOM     45  O   UNL     1       4.140  -3.479  27.022  0.00  0.00    -0.327 OA
BRANCH  45  46
ATOM     46  C   UNL     1       5.403  -3.257  27.576  0.00  0.00    +0.442 C 
ATOM     47  O   UNL     1       6.219  -2.434  27.056  0.00  0.00    -0.235 OA
ENDBRANCH  45  46
ENDBRANCH   7  45
TORSDOF 7
ENDMDL
