REMARK  Name = =
REMARK  7 active torsions:
REMARK  status: ('A' for Active; 'I' for Inactive)
REMARK    1  A    between atoms: C_1  and  C_13
REMARK    2  A    between atoms: C_3  and  C_32
REMARK    3  A    between atoms: N_7  and  O_41
REMARK    4  A    between atoms: C_11  and  N_21
REMARK    5  A    between atoms: C_11  and  N_26
REMARK    6  A    between atoms: C_19  and  O_31
REMARK    7  A    between atoms: O_41  and  C_42
REMARK                            x       y       z     vdW  Elec       q    Type
REMARK                         _______ _______ _______ _____ _____    ______ ____
ROOT
ATOM      1  C   UNL     1       1.937  -4.730  27.791  0.00  0.00    +0.094 C 
ATOM      2  N   UNL     1       2.966  -5.592  27.720  0.00  0.00    -0.245 NA
ATOM      3  C   UNL     1       4.056  -5.381  26.933  0.00  0.00    +0.100 C 
ATOM      4  C   UNL     1       4.110  -4.238  26.175  0.00  0.00    +0.119 C 
ATOM      5  N   UNL     1       3.108  -3.370  26.226  0.00  0.00    -0.223 NA
ATOM      6  C   UNL     1       2.035  -3.611  27.023  0.00  0.00    +0.188 C 
ATOM      7  N   UNL     1       1.039  -2.614  27.011  0.00  0.00    -0.062 N 
ATOM      8  C   UNL     1       0.537  -2.127  25.796  0.00  0.00    +0.338 C 
ATOM      9  O   UNL     1       0.918  -2.524  24.663  0.00  0.00    -0.249 OA
ATOM     10  N   UNL     1      -0.464  -1.123  25.814  0.00  0.00    -0.311 N 
ATOM     11  H   UNL     1      -0.798  -0.776  26.673  0.00  0.00    +0.147 HD
ATOM     12  H   UNL     1      -0.825  -0.772  24.968  0.00  0.00    +0.147 HD
ENDROOT
BRANCH   1  15
ATOM     13  C   UNL     1      -0.168  -6.879  30.089  0.00  0.00    +0.127 C 
ATOM     14  C   UNL     1       1.010  -6.281  29.410  0.00  0.00    +0.045 C 
ATOM     15  C   UNL     1       0.791  -4.992  28.649  0.00  0.00    +0.051 C 
ATOM     16  C   UNL     1      -0.527  -5.225  27.886  0.00  0.00    +0.032 C 
ATOM     17  C   UNL     1      -1.510  -5.160  28.984  0.00  0.00    -0.020 C 
ATOM     18  C   UNL     1      -1.306  -5.948  30.091  0.00  0.00    +0.004 C 
ATOM     19  C   UNL     1      -2.211  -5.861  31.167  0.00  0.00    +0.001 C 
ATOM     20  C   UNL     1      -3.280  -4.997  31.098  0.00  0.00    +0.036 C 
ATOM     21  C   UNL     1      -3.475  -4.213  29.979  0.00  0.00    +0.133 C 
ATOM     22  C   UNL     1      -2.573  -4.306  28.922  0.00  0.00    +0.032 C 
BRANCH  13  23
ATOM     23  N   UNL     1      -0.560  -8.084  29.311  0.00  0.00    -0.265 N 
ATOM     24  C   UNL     1       0.356  -8.790  28.531  0.00  0.00    +0.227 C 
ATOM     25  O   UNL     1      -0.067  -9.833  27.911  0.00  0.00    -0.275 OA
ATOM     26  C   UNL     1       1.782  -8.509  28.301  0.00  0.00    +0.095 C 
ATOM     27  C   UNL     1      -1.940  -8.527  29.401  0.00  0.00    +0.116 C 
ENDBRANCH  13  23
BRANCH  13  28
ATOM     28  N   UNL     1       0.198  -7.388  31.353  0.00  0.00    -0.257 NA
ATOM     29  C   UNL     1      -0.672  -8.161  32.110  0.00  0.00    +0.074 C 
ATOM     30  C   UNL     1      -0.313  -7.946  33.576  0.00  0.00    +0.019 C 
ATOM     31  C   UNL     1       1.124  -7.444  33.468  0.00  0.00    +0.019 C 
ATOM     32  C   UNL     1       1.290  -6.905  32.055  0.00  0.00    +0.074 C 
ENDBRANCH  13  28
BRANCH  21  33
ATOM     33  O   UNL     1      -4.544  -3.350  29.908  0.00  0.00    -0.506 OA
ATOM     34  H   UNL     1      -5.147  -3.292  30.622  0.00  0.00    +0.292 HD
ENDBRANCH  21  33
ENDBRANCH   1  15
BRANCH   3  35
ATOM     35  C   UNL     1       5.148  -6.370  26.930  0.00  0.00    +0.019 C 
ATOM     36  C   UNL     1       4.846  -7.664  26.551  0.00  0.00    -0.002 C 
ATOM     37  C   UNL     1       5.820  -8.656  26.540  0.00  0.00    -0.009 C 
ATOM     38  C   UNL     1       7.116  -8.382  26.906  0.00  0.00    -0.009 C 
ATOM     39  C   UNL     1       7.427  -7.094  27.283  0.00  0.00    -0.003 C 
ATOM     40  C   UNL     1       6.434  -6.108  27.289  0.00  0.00    +0.001 C 
ATOM     41  C   UNL     1       7.932  -9.646  26.806  0.00  0.00    +0.096 C 
ATOM     42  N   UNL     1       6.879 -10.656  26.927  0.00  0.00    -0.290 NA
ATOM     43  C   UNL     1       5.770 -10.094  26.182  0.00  0.00    +0.096 C 
ATOM     44  H   UNL     1       6.624 -10.799  27.904  0.00  0.00    +0.124 HD
ENDBRANCH   3  35
BRANCH   7  45
ATOM     45  O   UNL     1       0.576  -2.117  28.185  0.00  0.00    -0.327 OA
BRANCH  45  46
ATOM     46  C   UNL     1       1.252  -1.021  28.726  0.00  0.00    +0.442 C 
ATOM     47  O   UNL     1       2.519  -0.944  28.697  0.00  0.00    -0.235 OA
ENDBRANCH  45  46
ENDBRANCH   7  45
TORSDOF 7
