MODEL 1
REMARK VINA RESULT:    -8.477      0.000      0.000
REMARK INTER + INTRA:         -16.656
REMARK INTER:                 -13.928
REMARK INTRA:                  -2.728
REMARK UNBOUND:                -2.728
REMARK  Name = =
REMARK  13 active torsions:
REMARK  status: ('A' for Active; 'I' for Inactive)
REMARK    1  A    between atoms: C_1  and  C_14
REMARK    2  A    between atoms: C_2  and  O_39
REMARK    3  A    between atoms: C_3  and  O_38
REMARK    4  A    between atoms: C_4  and  N_33
REMARK    5  A    between atoms: C_6  and  N_7
REMARK    6  A    between atoms: N_13  and  C_16
REMARK    7  A    between atoms: N_13  and  O_24
REMARK    8  A    between atoms: C_18  and  C_22
REMARK    9  A    between atoms: O_24  and  C_25
REMARK   10  A    between atoms: C_28  and  C_31
REMARK   11  A    between atoms: N_33  and  P_34
REMARK   12  A    between atoms: P_34  and  O_36
REMARK   13  A    between atoms: P_34  and  O_37
REMARK                            x       y       z     vdW  Elec       q    Type
REMARK                         _______ _______ _______ _____ _____    ______ ____
ROOT
ATOM      1  C   UNL     1      -3.471  -3.787  31.086  0.00  0.00    +0.107 C 
ATOM      2  C   UNL     1      -4.020  -2.386  31.025  0.00  0.00    +0.174 C 
ATOM      3  C   UNL     1      -5.076  -2.062  31.773  0.00  0.00    +0.181 C 
ATOM      4  C   UNL     1      -5.733  -2.928  32.593  0.00  0.00    +0.091 C 
ATOM      5  C   UNL     1      -5.177  -4.226  32.660  0.00  0.00    +0.033 C 
ATOM      6  C   UNL     1      -4.059  -4.668  31.956  0.00  0.00    +0.061 C 
ENDROOT
BRANCH   6   7
ATOM      7  N   UNL     1      -3.433  -5.908  32.242  0.00  0.00    -0.283 N 
ATOM      8  C   UNL     1      -2.408  -6.152  33.186  0.00  0.00    +0.081 C 
ATOM      9  C   UNL     1      -1.651  -7.449  33.042  0.00  0.00    +0.074 C 
ATOM     10  N   UNL     1      -2.028  -8.291  31.961  0.00  0.00    -0.329 N 
ATOM     11  C   UNL     1      -3.513  -8.334  31.939  0.00  0.00    +0.109 C 
ATOM     12  C   UNL     1      -3.949  -7.006  31.377  0.00  0.00    +0.117 C 
ATOM     13  H   UNL     1      -1.420  -8.758  31.343  0.00  0.00    +0.147 HD
ENDBRANCH   6   7
BRANCH   1  15
ATOM     14  N   UNL     1      -1.620  -4.556  29.403  0.00  0.00    -0.097 N 
ATOM     15  C   UNL     1      -2.788  -4.072  29.883  0.00  0.00    +0.288 C 
ATOM     16  O   UNL     1      -3.650  -3.715  28.804  0.00  0.00    -0.266 OA
BRANCH  14  17
ATOM     17  C   UNL     1      -0.648  -5.452  29.723  0.00  0.00    +0.093 C 
ATOM     18  C   UNL     1       0.236  -4.993  30.717  0.00  0.00    +0.029 C 
ATOM     19  C   UNL     1       1.220  -5.844  31.028  0.00  0.00    +0.070 C 
ATOM     20  C   UNL     1       1.457  -7.085  30.429  0.00  0.00    +0.010 C 
ATOM     21  C   UNL     1       0.537  -7.465  29.450  0.00  0.00    +0.002 C 
ATOM     22  C   UNL     1      -0.491  -6.622  29.133  0.00  0.00    +0.018 C 
BRANCH  19  23
ATOM     23  C   UNL     1       2.289  -5.398  32.065  0.00  0.00    +0.100 C 
ATOM     24  N   UNL     1       3.088  -5.086  32.838  0.00  0.00    -0.191 NA
ENDBRANCH  19  23
ENDBRANCH  14  17
BRANCH  14  25
ATOM     25  O   UNL     1      -1.373  -3.727  28.162  0.00  0.00    -0.376 OA
BRANCH  25  26
ATOM     26  C   UNL     1      -0.205  -3.118  27.920  0.00  0.00    +0.171 C 
ATOM     27  C   UNL     1       0.579  -3.838  26.960  0.00  0.00    +0.040 C 
ATOM     28  C   UNL     1       1.775  -3.265  26.620  0.00  0.00    +0.003 C 
ATOM     29  C   UNL     1       2.170  -2.105  27.187  0.00  0.00    +0.000 C 
ATOM     30  C   UNL     1       1.456  -1.357  28.122  0.00  0.00    +0.003 C 
ATOM     31  C   UNL     1       0.242  -1.915  28.453  0.00  0.00    +0.040 C 
BRANCH  29  32
ATOM     32  C   UNL     1       3.505  -1.631  26.697  0.00  0.00    +0.000 C 
ATOM     33  C   UNL     1       4.538  -2.295  27.024  0.00  0.00    +0.000 C 
ENDBRANCH  29  32
ENDBRANCH  25  26
ENDBRANCH  14  25
ENDBRANCH   1  15
BRANCH   4  34
ATOM     34  N   UNL     1      -7.053  -2.616  32.996  0.00  0.00    -0.248 N 
ATOM     35  H   UNL     1      -7.171  -2.599  33.973  0.00  0.00    +0.158 HD
BRANCH  34  36
ATOM     36  P   UNL     1      -8.479  -2.263  32.137  0.00  0.00    +0.422 P 
ATOM     37  O   UNL     1      -8.068  -1.911  30.662  0.00  0.00    -0.237 OA
BRANCH  36  38
ATOM     38  O   UNL     1      -9.167  -0.795  32.707  0.00  0.00    -0.310 OA
ATOM     39  H   UNL     1      -9.807  -0.989  33.409  0.00  0.00    +0.221 HD
ENDBRANCH  36  38
BRANCH  36  40
ATOM     40  O   UNL     1      -9.629  -3.471  32.111  0.00  0.00    -0.310 OA
ATOM     41  H   UNL     1      -9.232  -4.288  31.771  0.00  0.00    +0.221 HD
ENDBRANCH  36  40
ENDBRANCH  34  36
ENDBRANCH   4  34
BRANCH   3  42
ATOM     42  O   UNL     1      -5.439  -0.672  31.719  0.00  0.00    -0.502 OA
ATOM     43  H   UNL     1      -6.340  -0.426  31.631  0.00  0.00    +0.292 HD
ENDBRANCH   3  42
BRANCH   2  44
ATOM     44  O   UNL     1      -3.333  -1.568  30.151  0.00  0.00    -0.503 OA
ATOM     45  H   UNL     1      -3.609  -1.503  29.258  0.00  0.00    +0.292 HD
ENDBRANCH   2  44
TORSDOF 13
ENDMDL
