REMARK  Name = =
REMARK  5 active torsions:
REMARK  status: ('A' for Active; 'I' for Inactive)
REMARK    1  A    between atoms: C_1  and  C_29
REMARK    2  A    between atoms: C_3  and  C_8
REMARK    3  A    between atoms: C_3  and  C_34
REMARK    4  A    between atoms: C_30  and  O_33
REMARK    5  A    between atoms: C_42  and  O_44
REMARK                            x       y       z     vdW  Elec       q    Type
REMARK                         _______ _______ _______ _____ _____    ______ ____
ROOT
ATOM      1  C   UNL     1      -1.352  -7.237  30.402  0.00  0.00    +0.144 C 
ATOM      2  O   UNL     1       0.019  -6.831  30.336  0.00  0.00    -0.348 OA
ATOM      3  C   UNL     1       0.591  -6.748  29.185  0.00  0.00    +0.130 C 
ATOM      4  C   UNL     1      -0.363  -7.578  28.193  0.00  0.00    +0.036 C 
ATOM      5  C   UNL     1      -0.729  -8.898  28.802  0.00  0.00    +0.006 C 
ATOM      6  C   UNL     1      -1.193  -8.745  30.243  0.00  0.00    +0.032 C 
ATOM      7  C   UNL     1      -2.556  -9.436  30.299  0.00  0.00    +0.003 C 
ENDROOT
BRANCH   3   8
ATOM      8  C   UNL     1       0.550  -5.379  28.525  0.00  0.00    +0.006 C 
ATOM      9  C   UNL     1       1.457  -5.176  27.446  0.00  0.00    -0.002 C 
ATOM     10  C   UNL     1       1.549  -4.002  26.734  0.00  0.00    +0.002 C 
ATOM     11  C   UNL     1       0.708  -2.991  27.116  0.00  0.00    +0.029 C 
ATOM     12  C   UNL     1      -0.170  -3.142  28.141  0.00  0.00    +0.006 C 
ATOM     13  C   UNL     1      -0.243  -4.359  28.852  0.00  0.00    -0.001 C 
ATOM     14  S   UNL     1       0.727  -1.407  26.292  0.00  0.00    -0.087 S 
ATOM     15  C   UNL     1       1.654  -1.671  24.765  0.00  0.00    +0.025 C 
ATOM     16  C   UNL     1       2.400  -2.797  24.613  0.00  0.00    -0.016 C 
ATOM     17  C   UNL     1       3.134  -2.919  23.435  0.00  0.00    +0.052 C 
ATOM     18  C   UNL     1       3.117  -1.936  22.429  0.00  0.00    -0.021 C 
ATOM     19  C   UNL     1       2.341  -0.825  22.644  0.00  0.00    -0.004 C 
ATOM     20  C   UNL     1       1.624  -0.709  23.806  0.00  0.00    +0.006 C 
ATOM     21  C   UNL     1       2.386  -3.944  25.538  0.00  0.00    -0.025 C 
ATOM     22  C   UNL     1       3.216  -4.929  25.300  0.00  0.00    +0.031 C 
ENDBRANCH   3   8
BRANCH   1  29
ATOM     23  O   UNL     1      -3.000  -4.860  30.545  0.00  0.00    -0.476 OA
ATOM     24  C   UNL     1      -4.372  -4.482  30.302  0.00  0.00    +0.206 C 
ATOM     25  C   UNL     1      -5.150  -4.320  31.594  0.00  0.00    +0.052 C 
ATOM     26  C   UNL     1      -4.152  -3.970  32.702  0.00  0.00    +0.033 C 
ATOM     27  C   UNL     1      -3.302  -5.181  32.838  0.00  0.00    +0.012 C 
ATOM     28  C   UNL     1      -2.732  -5.656  31.680  0.00  0.00    +0.136 C 
ATOM     29  C   UNL     1      -1.967  -6.832  31.661  0.00  0.00    +0.072 C 
ATOM     30  C   UNL     1      -1.779  -7.523  32.831  0.00  0.00    +0.135 C 
ATOM     31  C   UNL     1      -2.353  -7.040  34.003  0.00  0.00    +0.036 C 
ATOM     32  C   UNL     1      -3.106  -5.881  33.997  0.00  0.00    +0.002 C 
BRANCH  30  33
ATOM     33  O   UNL     1      -1.027  -8.707  32.921  0.00  0.00    -0.506 OA
ATOM     34  H   UNL     1      -0.624  -9.065  32.155  0.00  0.00    +0.292 HD
ENDBRANCH  30  33
ENDBRANCH   1  29
BRANCH   3  35
ATOM     35  C   UNL     1       1.865  -7.365  28.728  0.00  0.00    +0.009 C 
ATOM     36  C   UNL     1       1.989  -8.427  27.906  0.00  0.00    +0.019 C 
ATOM     37  C   UNL     1       3.160  -8.716  27.224  0.00  0.00    +0.081 C 
ATOM     38  N   UNL     1       4.267  -7.923  27.364  0.00  0.00    -0.244 NA
ATOM     39  C   UNL     1       4.142  -6.877  28.186  0.00  0.00    +0.099 C 
ATOM     40  C   UNL     1       3.026  -6.542  28.876  0.00  0.00    +0.019 C 
ATOM     41  C   UNL     1       3.230  -9.846  26.447  0.00  0.00    +0.022 C 
ATOM     42  C   UNL     1       2.158 -10.705  26.334  0.00  0.00    +0.038 C 
ATOM     43  C   UNL     1       1.002 -10.422  27.018  0.00  0.00    +0.134 C 
ATOM     44  C   UNL     1       0.913  -9.312  27.790  0.00  0.00    +0.038 C 
BRANCH  43  45
ATOM     45  O   UNL     1      -0.115 -11.257  26.947  0.00  0.00    -0.506 OA
ATOM     46  H   UNL     1      -0.087 -12.033  26.422  0.00  0.00    +0.292 HD
ENDBRANCH  43  45
ENDBRANCH   3  35
TORSDOF 5
