REMARK  Name = =
REMARK  13 active torsions:
REMARK  status: ('A' for Active; 'I' for Inactive)
REMARK    1  A    between atoms: C_1  and  C_14
REMARK    2  A    between atoms: C_2  and  O_39
REMARK    3  A    between atoms: C_3  and  O_38
REMARK    4  A    between atoms: C_4  and  N_33
REMARK    5  A    between atoms: C_6  and  N_7
REMARK    6  A    between atoms: N_13  and  C_16
REMARK    7  A    between atoms: N_13  and  O_24
REMARK    8  A    between atoms: C_18  and  C_22
REMARK    9  A    between atoms: O_24  and  C_25
REMARK   10  A    between atoms: C_28  and  C_31
REMARK   11  A    between atoms: N_33  and  P_34
REMARK   12  A    between atoms: P_34  and  O_36
REMARK   13  A    between atoms: P_34  and  O_37
REMARK                            x       y       z     vdW  Elec       q    Type
REMARK                         _______ _______ _______ _____ _____    ______ ____
ROOT
ATOM      1  C   UNL     1      -8.505  -0.722  21.922  0.00  0.00    +0.107 C 
ATOM      2  C   UNL     1      -8.292  -0.533  23.401  0.00  0.00    +0.174 C 
ATOM      3  C   UNL     1      -9.273  -0.843  24.250  0.00  0.00    +0.181 C 
ATOM      4  C   UNL     1     -10.497  -1.307  23.875  0.00  0.00    +0.091 C 
ATOM      5  C   UNL     1     -10.660  -1.510  22.486  0.00  0.00    +0.033 C 
ATOM      6  C   UNL     1      -9.698  -1.258  21.510  0.00  0.00    +0.061 C 
ENDROOT
BRANCH   6   7
ATOM      7  N   UNL     1      -9.856  -1.693  20.170  0.00  0.00    -0.283 N 
ATOM      8  C   UNL     1     -10.641  -1.088  19.160  0.00  0.00    +0.081 C 
ATOM      9  C   UNL     1     -10.950  -1.931  17.948  0.00  0.00    +0.074 C 
ATOM     10  N   UNL     1     -10.439  -3.258  17.946  0.00  0.00    -0.329 N 
ATOM     11  C   UNL     1      -9.031  -3.183  18.414  0.00  0.00    +0.109 C 
ATOM     12  C   UNL     1      -9.109  -2.954  19.901  0.00  0.00    +0.117 C 
ATOM     13  H   UNL     1     -10.926  -4.072  17.684  0.00  0.00    +0.147 HD
ENDBRANCH   6   7
BRANCH   1  15
ATOM     14  N   UNL     1      -6.622   0.157  20.332  0.00  0.00    -0.097 N 
ATOM     15  C   UNL     1      -7.647   0.148  21.213  0.00  0.00    +0.288 C 
ATOM     16  O   UNL     1      -8.003   1.483  21.564  0.00  0.00    -0.266 OA
BRANCH  14  17
ATOM     17  C   UNL     1      -6.133  -0.563  19.286  0.00  0.00    +0.093 C 
ATOM     18  C   UNL     1      -5.632  -1.824  19.657  0.00  0.00    +0.029 C 
ATOM     19  C   UNL     1      -5.117  -2.540  18.650  0.00  0.00    +0.070 C 
ATOM     20  C   UNL     1      -4.999  -2.126  17.320  0.00  0.00    +0.010 C 
ATOM     21  C   UNL     1      -5.517  -0.861  17.036  0.00  0.00    +0.002 C 
ATOM     22  C   UNL     1      -6.070  -0.122  18.044  0.00  0.00    +0.018 C 
BRANCH  19  23
ATOM     23  C   UNL     1      -4.474  -3.919  18.971  0.00  0.00    +0.100 C 
ATOM     24  N   UNL     1      -3.991  -4.944  19.190  0.00  0.00    -0.191 NA
ENDBRANCH  19  23
ENDBRANCH  14  17
BRANCH  14  25
ATOM     25  O   UNL     1      -5.776   1.328  20.781  0.00  0.00    -0.376 OA
BRANCH  25  26
ATOM     26  C   UNL     1      -4.447   1.248  20.925  0.00  0.00    +0.171 C 
ATOM     27  C   UNL     1      -3.761   2.087  19.987  0.00  0.00    +0.040 C 
ATOM     28  C   UNL     1      -2.395   2.099  20.089  0.00  0.00    +0.003 C 
ATOM     29  C   UNL     1      -1.766   1.341  21.012  0.00  0.00    +0.000 C 
ATOM     30  C   UNL     1      -2.373   0.508  21.951  0.00  0.00    +0.003 C 
ATOM     31  C   UNL     1      -3.748   0.507  21.870  0.00  0.00    +0.040 C 
BRANCH  29  32
ATOM     32  C   UNL     1      -0.274   1.479  20.974  0.00  0.00    +0.000 C 
ATOM     33  C   UNL     1       0.228   2.639  21.105  0.00  0.00    +0.000 C 
ENDBRANCH  29  32
ENDBRANCH  25  26
ENDBRANCH  14  25
ENDBRANCH   1  15
BRANCH   4  34
ATOM     34  N   UNL     1     -11.575  -1.198  24.786  0.00  0.00    -0.248 N 
ATOM     35  H   UNL     1     -12.008  -0.314  24.776  0.00  0.00    +0.158 HD
BRANCH  34  36
ATOM     36  P   UNL     1     -12.276  -2.282  25.894  0.00  0.00    +0.422 P 
ATOM     37  O   UNL     1     -13.813  -1.963  25.960  0.00  0.00    -0.237 OA
BRANCH  36  38
ATOM     38  O   UNL     1     -11.740  -1.930  27.488  0.00  0.00    -0.310 OA
ATOM     39  H   UNL     1     -11.867  -0.986  27.671  0.00  0.00    +0.221 HD
ENDBRANCH  36  38
BRANCH  36  40
ATOM     40  O   UNL     1     -12.068  -3.902  25.556  0.00  0.00    -0.310 OA
ATOM     41  H   UNL     1     -12.374  -4.086  24.654  0.00  0.00    +0.221 HD
ENDBRANCH  36  40
ENDBRANCH  34  36
ENDBRANCH   4  34
BRANCH   3  42
ATOM     42  O   UNL     1      -8.916  -0.729  25.638  0.00  0.00    -0.502 OA
ATOM     43  H   UNL     1      -8.069  -0.408  25.879  0.00  0.00    +0.292 HD
ENDBRANCH   3  42
BRANCH   2  44
ATOM     44  O   UNL     1      -7.047  -0.027  23.712  0.00  0.00    -0.503 OA
ATOM     45  H   UNL     1      -6.432   0.155  23.029  0.00  0.00    +0.292 HD
ENDBRANCH   2  44
TORSDOF 13
