REMARK  Name = =
REMARK  0 active torsions:
REMARK  status: ('A' for Active; 'I' for Inactive)
REMARK                            x       y       z     vdW  Elec       q    Type
REMARK                         _______ _______ _______ _____ _____    ______ ____
ROOT
ATOM      1  N   UNL     1      -9.174 -44.891  29.030  0.00  0.00    -0.264 N 
ATOM      2  C   UNL     1      -8.423 -46.042  28.464  0.00  0.00    +0.095 C 
ATOM      3  C   UNL     1      -9.177 -47.317  28.751  0.00  0.00    +0.022 C 
ATOM      4  C   UNL     1     -10.638 -47.011  29.042  0.00  0.00    +0.004 C 
ATOM      5  C   UNL     1     -11.079 -46.006  28.036  0.00  0.00    +0.022 C 
ATOM      6  C   UNL     1     -10.416 -44.648  28.403  0.00  0.00    +0.095 C 
ATOM      7  C   UNL     1      -8.609 -44.294  30.186  0.00  0.00    +0.315 C 
ATOM      8  O   UNL     1      -7.623 -45.025  30.618  0.00  0.00    -0.252 OA
ATOM      9  N   UNL     1      -9.006 -43.127  30.816  0.00  0.00    -0.222 N 
ATOM     10  C   UNL     1      -9.911 -42.226  30.144  0.00  0.00    +0.060 C 
ATOM     11  C   UNL     1     -11.036 -41.611  30.652  0.00  0.00    +0.014 C 
ATOM     12  C   UNL     1     -11.722 -40.768  29.804  0.00  0.00    +0.001 C 
ATOM     13  C   UNL     1     -11.277 -40.571  28.513  0.00  0.00    +0.000 C 
ATOM     14  C   UNL     1     -10.150 -41.186  28.003  0.00  0.00    +0.001 C 
ATOM     15  C   UNL     1      -9.472 -42.025  28.858  0.00  0.00    +0.015 C 
ATOM     16  C   UNL     1     -11.563 -41.772  32.011  0.00  0.00    +0.001 C 
ATOM     17  C   UNL     1     -10.624 -41.473  33.114  0.00  0.00    +0.001 C 
ATOM     18  C   UNL     1      -9.336 -42.167  33.159  0.00  0.00    +0.014 C 
ATOM     19  C   UNL     1      -8.620 -42.834  32.191  0.00  0.00    +0.060 C 
ATOM     20  C   UNL     1      -7.385 -43.384  32.413  0.00  0.00    +0.015 C 
ATOM     21  C   UNL     1      -6.783 -43.297  33.656  0.00  0.00    +0.001 C 
ATOM     22  C   UNL     1      -7.502 -42.627  34.641  0.00  0.00    +0.000 C 
ATOM     23  C   UNL     1      -8.739 -42.074  34.414  0.00  0.00    +0.001 C 
ENDROOT
TORSDOF 0
