REMARK  Name = =
REMARK  5 active torsions:
REMARK  status: ('A' for Active; 'I' for Inactive)
REMARK    1  A    between atoms: C_1  and  C_18
REMARK    2  A    between atoms: C_1  and  C_25
REMARK    3  A    between atoms: C_15  and  N_19
REMARK    4  A    between atoms: C_25  and  C_31
REMARK    5  A    between atoms: C_38  and  C_41
REMARK                            x       y       z     vdW  Elec       q    Type
REMARK                         _______ _______ _______ _____ _____    ______ ____
ROOT
ATOM      1  C   UNL     1     -12.996   4.471  19.049  0.00  0.00    +0.018 C 
ATOM      2  C   UNL     1     -14.318   3.857  18.887  0.00  0.00    +0.005 C 
ATOM      3  C   UNL     1     -15.126   3.503  20.065  0.00  0.00    +0.018 C 
ATOM      4  C   UNL     1     -14.554   3.612  21.402  0.00  0.00    +0.004 C 
ATOM      5  C   UNL     1     -13.877   4.975  21.413  0.00  0.00    +0.000 C 
ATOM      6  C   UNL     1     -12.732   4.891  20.501  0.00  0.00    +0.002 C 
ATOM      7  C   UNL     1     -16.567   3.585  19.984  0.00  0.00    -0.045 C 
ATOM      8  C   UNL     1     -17.360   4.114  20.867  0.00  0.00    -0.009 C 
ATOM      9  C   UNL     1     -17.140   2.993  18.706  0.00  0.00    +0.022 C 
ATOM     10  C   UNL     1     -16.562   3.922  17.665  0.00  0.00    +0.004 C 
ATOM     11  C   UNL     1     -15.037   3.860  17.622  0.00  0.00    +0.001 C 
ENDROOT
BRANCH   1  18
ATOM     12  C   UNL     1     -14.504   6.232  18.024  0.00  0.00    +0.032 C 
ATOM     13  C   UNL     1     -14.477   7.334  18.948  0.00  0.00    +0.060 C 
ATOM     14  N   UNL     1     -13.015   7.039  19.167  0.00  0.00    -0.261 NA
ATOM     15  C   UNL     1     -12.676   8.148  20.010  0.00  0.00    +0.136 C 
ATOM     16  C   UNL     1     -13.413   9.209  19.568  0.00  0.00    +0.038 C 
ATOM     17  C   UNL     1     -14.248   8.764  18.412  0.00  0.00    +0.019 C 
ATOM     18  C   UNL     1     -13.049   5.833  18.338  0.00  0.00    +0.060 C 
BRANCH  15  19
ATOM     19  N   UNL     1     -11.828   8.260  21.145  0.00  0.00    -0.268 N 
ATOM     20  C   UNL     1     -12.286   8.424  22.517  0.00  0.00    +0.227 C 
ATOM     21  O   UNL     1     -13.440   8.094  22.872  0.00  0.00    -0.275 OA
ATOM     22  C   UNL     1     -11.241   9.005  23.369  0.00  0.00    +0.087 C 
ATOM     23  C   UNL     1     -10.144   9.308  22.398  0.00  0.00    +0.031 C 
ATOM     24  C   UNL     1     -10.398   8.327  21.219  0.00  0.00    +0.095 C 
ENDBRANCH  15  19
ENDBRANCH   1  18
BRANCH   1  25
ATOM     25  C   UNL     1     -11.777   3.760  18.543  0.00  0.00    +0.027 C 
ATOM     26  C   UNL     1     -11.556   4.013  17.035  0.00  0.00    +0.012 C 
ATOM     27  C   UNL     1     -10.519   5.037  16.821  0.00  0.00    +0.065 C 
ATOM     28  C   UNL     1     -10.134   5.520  18.141  0.00  0.00    +0.151 C 
ATOM     29  O   UNL     1      -9.639   6.578  18.438  0.00  0.00    -0.296 OA
ATOM     30  C   UNL     1     -10.501   4.384  19.048  0.00  0.00    +0.069 C 
BRANCH  25  31
ATOM     31  C   UNL     1     -11.671   2.276  18.590  0.00  0.00    -0.019 C 
ATOM     32  C   UNL     1     -12.471   1.576  17.506  0.00  0.00    +0.036 C 
ATOM     33  C   UNL     1     -13.597   0.724  17.899  0.00  0.00    +0.173 C 
ATOM     34  O   UNL     1     -13.610   0.274  19.213  0.00  0.00    -0.467 OA
ATOM     35  C   UNL     1     -12.538   0.528  20.072  0.00  0.00    +0.210 C 
ATOM     36  C   UNL     1     -11.574   1.503  19.817  0.00  0.00    +0.018 C 
ATOM     37  C   UNL     1     -10.581   1.619  20.772  0.00  0.00    +0.009 C 
ATOM     38  C   UNL     1     -10.490   0.852  21.926  0.00  0.00    +0.068 C 
ATOM     39  C   UNL     1     -11.472  -0.089  22.115  0.00  0.00    +0.010 C 
ATOM     40  C   UNL     1     -12.490  -0.257  21.203  0.00  0.00    +0.022 C 
BRANCH  38  41
ATOM     41  C   UNL     1      -9.415   1.045  22.869  0.00  0.00    +0.100 C 
ATOM     42  N   UNL     1      -8.552   1.220  23.632  0.00  0.00    -0.191 NA
ENDBRANCH  38  41
ENDBRANCH  25  31
ENDBRANCH   1  25
TORSDOF 5
