REMARK  Name = =
REMARK  6 active torsions:
REMARK  status: ('A' for Active; 'I' for Inactive)
REMARK    1  A    between atoms: O_1  and  P_2
REMARK    2  A    between atoms: O_1  and  P_6
REMARK    3  A    between atoms: P_2  and  O_4
REMARK    4  A    between atoms: P_2  and  O_5
REMARK    5  A    between atoms: P_6  and  O_8
REMARK    6  A    between atoms: P_6  and  O_9
REMARK                            x       y       z     vdW  Elec       q    Type
REMARK                         _______ _______ _______ _____ _____    ______ ____
ROOT
ATOM      1  O   UNL     1      -3.952  -4.081  30.019  0.00  0.00    -0.186 OA
ENDROOT
BRANCH   1   2
ATOM      2  P   UNL     1      -2.431  -4.723  30.285  0.00  0.00    +0.481 P 
ATOM      3  O   UNL     1      -1.323  -3.730  30.156  0.00  0.00    -0.227 OA
BRANCH   2   4
ATOM      4  O   UNL     1      -2.205  -5.960  29.127  0.00  0.00    -0.302 OA
ATOM      5  H   UNL     1      -2.921  -6.610  29.204  0.00  0.00    +0.222 HD
ENDBRANCH   2   4
BRANCH   2   6
ATOM      6  O   UNL     1      -2.353  -5.495  31.805  0.00  0.00    -0.302 OA
ATOM      7  H   UNL     1      -2.476  -4.838  32.508  0.00  0.00    +0.222 HD
ENDBRANCH   2   6
ENDBRANCH   1   2
BRANCH   1   8
ATOM      8  P   UNL     1      -4.338  -2.800  30.998  0.00  0.00    +0.481 P 
ATOM      9  O   UNL     1      -5.863  -2.744  31.117  0.00  0.00    -0.227 OA
BRANCH   8  10
ATOM     10  O   UNL     1      -3.743  -2.943  32.570  0.00  0.00    -0.302 OA
ATOM     11  H   UNL     1      -4.038  -3.785  32.952  0.00  0.00    +0.222 HD
ENDBRANCH   8  10
BRANCH   8  12
ATOM     12  O   UNL     1      -3.833  -1.341  30.323  0.00  0.00    -0.302 OA
ATOM     13  H   UNL     1      -4.179  -1.266  29.420  0.00  0.00    +0.222 HD
ENDBRANCH   8  12
ENDBRANCH   1   8
TORSDOF 6
