REMARK  Name = =
REMARK  1 active torsions:
REMARK  status: ('A' for Active; 'I' for Inactive)
REMARK    1  A    between atoms: C_2  and  O_13
REMARK                            x       y       z     vdW  Elec       q    Type
REMARK                         _______ _______ _______ _____ _____    ______ ____
ROOT
ATOM      1  C   UNL     1     -11.464 -42.429  27.553  0.00  0.00    +0.082 C 
ATOM      2  C   UNL     1     -10.268 -42.563  28.106  0.00  0.00    +0.176 C 
ATOM      3  C   UNL     1     -10.207 -43.311  29.353  0.00  0.00    +0.229 C 
ATOM      4  O   UNL     1      -9.074 -43.446  29.891  0.00  0.00    -0.283 OA
ATOM      5  C   UNL     1     -11.373 -43.902  29.998  0.00  0.00    +0.045 C 
ATOM      6  C   UNL     1     -12.610 -43.752  29.405  0.00  0.00    +0.042 C 
ATOM      7  C   UNL     1     -13.735 -44.300  29.992  0.00  0.00    +0.003 C 
ATOM      8  C   UNL     1     -13.645 -45.005  31.177  0.00  0.00    +0.000 C 
ATOM      9  C   UNL     1     -12.413 -45.169  31.790  0.00  0.00    +0.000 C 
ATOM     10  C   UNL     1     -11.318 -44.607  31.173  0.00  0.00    +0.003 C 
ATOM     11  C   UNL     1     -12.673 -43.002  28.156  0.00  0.00    +0.199 C 
ATOM     12  O   UNL     1     -13.808 -42.868  27.617  0.00  0.00    -0.286 OA
ENDROOT
BRANCH   2  13
ATOM     13  O   UNL     1      -9.131 -42.006  27.509  0.00  0.00    -0.503 OA
ATOM     14  H   UNL     1      -9.209 -41.531  26.705  0.00  0.00    +0.292 HD
ENDBRANCH   2  13
TORSDOF 1
