REMARK  Name = =
REMARK  3 active torsions:
REMARK  status: ('A' for Active; 'I' for Inactive)
REMARK    1  A    between atoms: C_1  and  C_14
REMARK    2  A    between atoms: C_2  and  O_13
REMARK    3  A    between atoms: C_14  and  N_15
REMARK                            x       y       z     vdW  Elec       q    Type
REMARK                         _______ _______ _______ _____ _____    ______ ____
ROOT
ATOM      1  C   UNL     1     -11.458 -42.606  28.931  0.00  0.00    +0.069 C 
ATOM      2  C   UNL     1     -10.222 -42.475  28.501  0.00  0.00    +0.173 C 
ATOM      3  C   UNL     1      -9.078 -42.457  29.396  0.00  0.00    +0.229 C 
ATOM      4  O   UNL     1      -7.898 -42.334  29.008  0.00  0.00    -0.283 OA
ATOM      5  C   UNL     1      -9.316 -42.590  30.832  0.00  0.00    +0.045 C 
ATOM      6  C   UNL     1     -10.603 -42.727  31.285  0.00  0.00    +0.042 C 
ATOM      7  C   UNL     1     -10.821 -42.853  32.654  0.00  0.00    +0.003 C 
ATOM      8  C   UNL     1      -9.782 -42.845  33.556  0.00  0.00    +0.000 C 
ATOM      9  C   UNL     1      -8.507 -42.706  33.061  0.00  0.00    +0.000 C 
ATOM     10  C   UNL     1      -8.248 -42.579  31.728  0.00  0.00    +0.003 C 
ATOM     11  C   UNL     1     -11.751 -42.741  30.348  0.00  0.00    +0.196 C 
ATOM     12  O   UNL     1     -12.896 -42.869  30.821  0.00  0.00    -0.287 OA
ENDROOT
BRANCH   2  13
ATOM     13  O   UNL     1      -9.992 -42.347  27.143  0.00  0.00    -0.503 OA
ATOM     14  H   UNL     1     -10.712 -42.355  26.543  0.00  0.00    +0.292 HD
ENDBRANCH   2  13
BRANCH   1  15
ATOM     15  C   UNL     1     -12.565 -42.615  27.960  0.00  0.00    +0.099 C 
BRANCH  15  16
ATOM     16  N   UNL     1     -13.207 -43.909  27.856  0.00  0.00    -0.317 NA
ATOM     17  H   UNL     1     -13.963 -43.860  27.173  0.00  0.00    +0.119 HD
ATOM     18  H   UNL     1     -13.587 -44.174  28.765  0.00  0.00    +0.119 HD
ENDBRANCH  15  16
ENDBRANCH   1  15
TORSDOF 3
