REMARK  Name = =
REMARK  7 active torsions:
REMARK  status: ('A' for Active; 'I' for Inactive)
REMARK    1  A    between atoms: C_1  and  O_22
REMARK    2  A    between atoms: C_2  and  C_7
REMARK    3  A    between atoms: C_7  and  C_12
REMARK    4  A    between atoms: O_22  and  N_23
REMARK    5  A    between atoms: N_23  and  C_24
REMARK    6  A    between atoms: C_24  and  C_25
REMARK    7  A    between atoms: C_26  and  O_37
REMARK                            x       y       z     vdW  Elec       q    Type
REMARK                         _______ _______ _______ _____ _____    ______ ____
ROOT
ATOM      1  C   UNL     1      -9.851 -44.396  29.500  0.00  0.00    +0.164 C 
ATOM      2  C   UNL     1     -10.503 -44.105  28.331  0.00  0.00    +0.036 C 
ATOM      3  C   UNL     1     -10.817 -45.165  27.518  0.00  0.00    +0.098 C 
ATOM      4  N   UNL     1     -10.505 -46.461  27.837  0.00  0.00    -0.242 NA
ATOM      5  C   UNL     1      -9.867 -46.727  28.985  0.00  0.00    +0.102 C 
ATOM      6  C   UNL     1      -9.520 -45.722  29.849  0.00  0.00    +0.060 C 
ENDROOT
BRANCH   2   7
ATOM      7  C   UNL     1     -10.852 -42.730  27.981  0.00  0.00    +0.042 C 
ATOM      8  C   UNL     1     -10.605 -41.706  28.994  0.00  0.00    +0.008 C 
ATOM      9  C   UNL     1      -9.493 -41.016  28.749  0.00  0.00    +0.001 C 
ATOM     10  C   UNL     1      -8.889 -41.547  27.503  0.00  0.00    +0.001 C 
ATOM     11  C   UNL     1     -10.040 -42.184  26.799  0.00  0.00    +0.008 C 
BRANCH   7  12
ATOM     12  C   UNL     1     -12.268 -42.731  27.526  0.00  0.00    -0.019 C 
ATOM     13  C   UNL     1     -12.573 -42.723  26.200  0.00  0.00    -0.004 C 
ATOM     14  C   UNL     1     -13.877 -42.723  25.731  0.00  0.00    -0.000 C 
ATOM     15  C   UNL     1     -14.938 -42.731  26.600  0.00  0.00    -0.000 C 
ATOM     16  C   UNL     1     -14.625 -42.739  27.975  0.00  0.00    -0.000 C 
ATOM     17  C   UNL     1     -13.318 -42.739  28.411  0.00  0.00    -0.004 C 
ATOM     18  C   UNL     1     -16.349 -42.730  26.177  0.00  0.00    -0.000 C 
ATOM     19  C   UNL     1     -16.578 -42.726  24.724  0.00  0.00    -0.000 C 
ATOM     20  C   UNL     1     -15.410 -42.717  23.849  0.00  0.00    -0.000 C 
ATOM     21  C   UNL     1     -14.186 -42.716  24.311  0.00  0.00    -0.000 C 
ENDBRANCH   7  12
ENDBRANCH   2   7
BRANCH   1  22
ATOM     22  O   UNL     1      -9.508 -43.372  30.359  0.00  0.00    -0.405 OA
BRANCH  22  23
ATOM     23  N   UNL     1     -10.032 -43.226  31.608  0.00  0.00    -0.140 NA
ATOM     24  H   UNL     1     -10.209 -42.238  31.787  0.00  0.00    +0.168 HD
BRANCH  23  25
ATOM     25  C   UNL     1     -11.261 -43.954  31.710  0.00  0.00    +0.142 C 
BRANCH  25  26
ATOM     26  C   UNL     1     -12.329 -43.179  32.378  0.00  0.00    +0.073 C 
ATOM     27  C   UNL     1     -13.574 -43.303  31.968  0.00  0.00    +0.173 C 
ATOM     28  C   UNL     1     -14.675 -42.573  32.577  0.00  0.00    +0.229 C 
ATOM     29  O   UNL     1     -15.858 -42.715  32.160  0.00  0.00    -0.283 OA
ATOM     30  C   UNL     1     -14.423 -41.659  33.686  0.00  0.00    +0.045 C 
ATOM     31  C   UNL     1     -13.109 -41.508  34.141  0.00  0.00    +0.042 C 
ATOM     32  C   UNL     1     -12.883 -40.650  35.180  0.00  0.00    +0.003 C 
ATOM     33  C   UNL     1     -13.924 -39.961  35.754  0.00  0.00    +0.000 C 
ATOM     34  C   UNL     1     -15.229 -40.115  35.298  0.00  0.00    +0.000 C 
ATOM     35  C   UNL     1     -15.470 -40.969  34.259  0.00  0.00    +0.003 C 
ATOM     36  C   UNL     1     -12.059 -42.273  33.481  0.00  0.00    +0.196 C 
ATOM     37  O   UNL     1     -10.877 -42.114  33.918  0.00  0.00    -0.287 OA
BRANCH  27  38
ATOM     38  O   UNL     1     -13.920 -44.158  30.906  0.00  0.00    -0.503 OA
ATOM     39  H   UNL     1     -13.257 -44.657  30.471  0.00  0.00    +0.292 HD
ENDBRANCH  27  38
ENDBRANCH  25  26
ENDBRANCH  23  25
ENDBRANCH  22  23
ENDBRANCH   1  22
TORSDOF 7
