MODEL 1
REMARK VINA RESULT:   -16.458      0.000      0.000
REMARK INTER + INTRA:         -21.874
REMARK INTER:                 -20.788
REMARK INTRA:                  -1.086
REMARK UNBOUND:                -1.086
REMARK  Name = =
REMARK  5 active torsions:
REMARK  status: ('A' for Active; 'I' for Inactive)
REMARK    1  A    between atoms: C_1  and  C_33
REMARK    2  A    between atoms: C_10  and  C_13
REMARK    3  A    between atoms: C_32  and  C_34
REMARK    4  A    between atoms: C_34  and  C_36
REMARK    5  A    between atoms: N_38  and  O_39
REMARK                            x       y       z     vdW  Elec       q    Type
REMARK                         _______ _______ _______ _____ _____    ______ ____
ROOT
ATOM      1  C   UNL     1     -12.851 -43.032  30.934  0.00  0.00    +0.052 C 
ATOM      2  C   UNL     1     -11.703 -42.047  31.415  0.00  0.00    +0.092 C 
ATOM      3  N   UNL     1     -10.675 -42.962  31.880  0.00  0.00    -0.335 N 
ATOM      4  C   UNL     1     -11.107 -44.300  31.641  0.00  0.00    +0.026 C 
ATOM      5  C   UNL     1     -11.987 -44.067  30.420  0.00  0.00    +0.065 C 
ATOM      6  C   UNL     1     -11.754 -44.721  29.312  0.00  0.00    +0.002 C 
ATOM      7  C   UNL     1     -10.707 -45.773  29.254  0.00  0.00    +0.078 C 
ATOM      8  N   UNL     1     -10.718 -46.295  28.101  0.00  0.00    -0.244 NA
ATOM      9  C   UNL     1     -11.697 -45.689  27.330  0.00  0.00    +0.099 C 
ATOM     10  C   UNL     1     -12.358 -44.714  28.022  0.00  0.00    +0.017 C 
ATOM     11  C   UNL     1      -9.884 -46.048  30.414  0.00  0.00    +0.020 C 
ATOM     12  C   UNL     1     -10.116 -45.328  31.499  0.00  0.00    +0.012 C 
ATOM     13  H   UNL     1      -9.820 -42.702  32.293  0.00  0.00    +0.147 HD
ENDROOT
BRANCH  10  14
ATOM     14  C   UNL     1     -13.453 -43.992  27.399  0.00  0.00    +0.001 C 
ATOM     15  C   UNL     1     -14.546 -43.489  28.009  0.00  0.00    +0.000 C 
ATOM     16  C   UNL     1     -15.611 -42.894  27.315  0.00  0.00    +0.000 C 
ATOM     17  C   UNL     1     -15.588 -42.792  25.945  0.00  0.00    +0.000 C 
ATOM     18  C   UNL     1     -16.622 -42.211  25.237  0.00  0.00    +0.000 C 
ATOM     19  C   UNL     1     -17.745 -41.703  25.926  0.00  0.00    +0.000 C 
ATOM     20  C   UNL     1     -18.803 -41.113  25.264  0.00  0.00    +0.000 C 
ATOM     21  C   UNL     1     -18.719 -41.039  23.880  0.00  0.00    +0.000 C 
ATOM     22  C   UNL     1     -17.643 -41.524  23.185  0.00  0.00    +0.000 C 
ATOM     23  C   UNL     1     -16.595 -42.110  23.868  0.00  0.00    +0.000 C 
ATOM     24  C   UNL     1     -19.772 -40.451  23.186  0.00  0.00    +0.000 C 
ATOM     25  C   UNL     1     -20.868 -39.954  23.858  0.00  0.00    +0.000 C 
ATOM     26  C   UNL     1     -20.944 -40.031  25.235  0.00  0.00    +0.000 C 
ATOM     27  C   UNL     1     -19.908 -40.612  25.932  0.00  0.00    +0.000 C 
ATOM     28  C   UNL     1     -17.768 -41.806  27.297  0.00  0.00    +0.000 C 
ATOM     29  C   UNL     1     -16.700 -42.402  27.973  0.00  0.00    +0.000 C 
ATOM     30  C   UNL     1     -14.495 -43.288  25.284  0.00  0.00    +0.000 C 
ATOM     31  C   UNL     1     -13.461 -43.869  25.992  0.00  0.00    +0.000 C 
ENDBRANCH  10  14
BRANCH   1  34
ATOM     32 CL   UNL     1     -14.718 -44.189  34.357  0.00  0.00    -0.084 Cl
ATOM     33  C   UNL     1     -14.263 -42.828  33.106  0.00  0.00    +0.070 C 
ATOM     34  C   UNL     1     -13.557 -43.328  32.189  0.00  0.00    -0.014 C 
BRANCH  33  35
ATOM     35  C   UNL     1     -14.725 -41.604  33.652  0.00  0.00    +0.262 C 
ATOM     36  O   UNL     1     -15.798 -41.064  33.061  0.00  0.00    -0.207 OA
BRANCH  35  37
ATOM     37  C   UNL     1     -14.283 -40.798  34.738  0.00  0.00    +0.280 C 
ATOM     38  O   UNL     1     -15.021 -40.171  35.500  0.00  0.00    -0.270 OA
ATOM     39  N   UNL     1     -12.859 -40.647  35.043  0.00  0.00    -0.195 N 
ATOM     40  H   UNL     1     -12.189 -41.110  34.490  0.00  0.00    +0.182 HD
BRANCH  39  41
ATOM     41  O   UNL     1     -12.463 -39.883  36.068  0.00  0.00    -0.295 OA
ATOM     42  H   UNL     1     -12.620 -40.353  36.901  0.00  0.00    +0.241 HD
ENDBRANCH  39  41
ENDBRANCH  35  37
ENDBRANCH  33  35
ENDBRANCH   1  34
TORSDOF 5
ENDMDL
