REMARK  Name = =
REMARK  5 active torsions:
REMARK  status: ('A' for Active; 'I' for Inactive)
REMARK    1  A    between atoms: C_1  and  C_33
REMARK    2  A    between atoms: C_10  and  C_13
REMARK    3  A    between atoms: C_32  and  C_34
REMARK    4  A    between atoms: C_34  and  C_36
REMARK    5  A    between atoms: N_38  and  O_39
REMARK                            x       y       z     vdW  Elec       q    Type
REMARK                         _______ _______ _______ _____ _____    ______ ____
ROOT
ATOM      1  C   UNL     1     -20.388 -42.712  24.210  0.00  0.00    +0.052 C 
ATOM      2  C   UNL     1     -20.650 -41.323  24.933  0.00  0.00    +0.092 C 
ATOM      3  N   UNL     1     -20.223 -40.360  23.932  0.00  0.00    -0.335 N 
ATOM      4  C   UNL     1     -19.837 -41.062  22.752  0.00  0.00    +0.026 C 
ATOM      5  C   UNL     1     -20.740 -42.283  22.878  0.00  0.00    +0.065 C 
ATOM      6  C   UNL     1     -21.563 -42.589  21.910  0.00  0.00    +0.002 C 
ATOM      7  C   UNL     1     -21.559 -41.826  20.636  0.00  0.00    +0.078 C 
ATOM      8  N   UNL     1     -22.395 -42.350  19.844  0.00  0.00    -0.244 NA
ATOM      9  C   UNL     1     -23.000 -43.432  20.463  0.00  0.00    +0.099 C 
ATOM     10  C   UNL     1     -22.530 -43.619  21.732  0.00  0.00    +0.017 C 
ATOM     11  C   UNL     1     -20.678 -40.687  20.470  0.00  0.00    +0.020 C 
ATOM     12  C   UNL     1     -19.898 -40.378  21.493  0.00  0.00    +0.012 C 
ATOM     13  H   UNL     1     -20.203 -39.383  24.049  0.00  0.00    +0.147 HD
ENDROOT
BRANCH  10  14
ATOM     14  C   UNL     1     -23.010 -44.734  22.531  0.00  0.00    +0.001 C 
ATOM     15  C   UNL     1     -23.786 -44.669  23.632  0.00  0.00    +0.000 C 
ATOM     16  C   UNL     1     -24.119 -45.790  24.407  0.00  0.00    +0.000 C 
ATOM     17  C   UNL     1     -23.658 -47.040  24.070  0.00  0.00    +0.000 C 
ATOM     18  C   UNL     1     -23.971 -48.161  24.815  0.00  0.00    +0.000 C 
ATOM     19  C   UNL     1     -24.786 -48.036  25.961  0.00  0.00    +0.000 C 
ATOM     20  C   UNL     1     -25.127 -49.125  26.738  0.00  0.00    +0.000 C 
ATOM     21  C   UNL     1     -24.631 -50.361  26.344  0.00  0.00    +0.000 C 
ATOM     22  C   UNL     1     -23.838 -50.512  25.238  0.00  0.00    +0.000 C 
ATOM     23  C   UNL     1     -23.509 -49.408  24.475  0.00  0.00    +0.000 C 
ATOM     24  C   UNL     1     -24.957 -51.477  27.109  0.00  0.00    +0.000 C 
ATOM     25  C   UNL     1     -25.753 -51.355  28.227  0.00  0.00    +0.000 C 
ATOM     26  C   UNL     1     -26.243 -50.123  28.613  0.00  0.00    +0.000 C 
ATOM     27  C   UNL     1     -25.926 -49.012  27.863  0.00  0.00    +0.000 C 
ATOM     28  C   UNL     1     -25.246 -46.785  26.299  0.00  0.00    +0.000 C 
ATOM     29  C   UNL     1     -24.905 -45.678  25.517  0.00  0.00    +0.000 C 
ATOM     30  C   UNL     1     -22.868 -47.153  22.957  0.00  0.00    +0.000 C 
ATOM     31  C   UNL     1     -22.555 -46.032  22.212  0.00  0.00    +0.000 C 
ENDBRANCH  10  14
BRANCH   1  34
ATOM     32 CL   UNL     1     -16.526 -43.653  25.070  0.00  0.00    -0.084 Cl
ATOM     33  C   UNL     1     -17.817 -42.408  24.432  0.00  0.00    +0.070 C 
ATOM     34  C   UNL     1     -18.960 -42.938  24.473  0.00  0.00    -0.014 C 
BRANCH  33  35
ATOM     35  C   UNL     1     -17.096 -41.288  23.947  0.00  0.00    +0.262 C 
ATOM     36  O   UNL     1     -17.456 -40.097  24.440  0.00  0.00    -0.207 OA
BRANCH  35  37
ATOM     37  C   UNL     1     -16.026 -41.151  23.019  0.00  0.00    +0.280 C 
ATOM     38  O   UNL     1     -14.898 -41.627  23.164  0.00  0.00    -0.270 OA
ATOM     39  N   UNL     1     -16.192 -40.404  21.771  0.00  0.00    -0.195 N 
ATOM     40  H   UNL     1     -17.059 -39.986  21.563  0.00  0.00    +0.182 HD
BRANCH  39  41
ATOM     41  O   UNL     1     -15.173 -40.286  20.911  0.00  0.00    -0.295 OA
ATOM     42  H   UNL     1     -14.398 -40.751  21.262  0.00  0.00    +0.241 HD
ENDBRANCH  39  41
ENDBRANCH  35  37
ENDBRANCH  33  35
ENDBRANCH   1  34
TORSDOF 5
