REMARK  Name = =
REMARK  0 active torsions:
REMARK  status: ('A' for Active; 'I' for Inactive)
REMARK                            x       y       z     vdW  Elec       q    Type
REMARK                         _______ _______ _______ _____ _____    ______ ____
ROOT
ATOM      1  N   UNL     1      -4.577  -4.042  30.579  0.00  0.00    -0.084 NA
ATOM      2  O   UNL     1      -3.532  -4.608  30.640  0.00  0.00    -0.152 OA
ATOM      3  H   UNL     1      -5.375  -4.434  31.002  0.00  0.00    +0.236 HD
ENDROOT
TORSDOF 0
