REMARK  Name = =
REMARK  4 active torsions:
REMARK  status: ('A' for Active; 'I' for Inactive)
REMARK    1  A    between atoms: C_1  and  O_16
REMARK    2  A    between atoms: C_5  and  C_17
REMARK    3  A    between atoms: C_10  and  O_20
REMARK    4  A    between atoms: C_17  and  O_19
REMARK                            x       y       z     vdW  Elec       q    Type
REMARK                         _______ _______ _______ _____ _____    ______ ____
ROOT
ATOM      1  C   UNL     1     -12.032 -45.026  27.484  0.00  0.00    +0.137 C 
ATOM      2  C   UNL     1     -11.399 -44.504  28.609  0.00  0.00    +0.069 C 
ATOM      3  C   UNL     1     -11.780 -43.281  29.078  0.00  0.00    -0.012 C 
ATOM      4  C   UNL     1     -12.791 -42.557  28.442  0.00  0.00    +0.003 C 
ATOM      5  C   UNL     1     -13.416 -43.066  27.334  0.00  0.00    +0.078 C 
ATOM      6  C   UNL     1     -13.054 -44.288  26.847  0.00  0.00    +0.043 C 
ATOM      7  C   UNL     1     -11.198 -42.608  30.255  0.00  0.00    +0.053 C 
ATOM      8  C   UNL     1     -10.139 -43.363  30.921  0.00  0.00    -0.012 C 
ATOM      9  C   UNL     1      -9.724 -44.600  30.483  0.00  0.00    +0.069 C 
ATOM     10  C   UNL     1      -8.701 -45.292  31.157  0.00  0.00    +0.136 C 
ATOM     11  C   UNL     1      -8.093 -44.709  32.297  0.00  0.00    +0.037 C 
ATOM     12  C   UNL     1      -8.537 -43.483  32.694  0.00  0.00    +0.003 C 
ATOM     13  C   UNL     1      -9.521 -42.799  32.060  0.00  0.00    -0.004 C 
ATOM     14  C   UNL     1     -10.339 -45.220  29.308  0.00  0.00    +0.201 C 
ATOM     15  O   UNL     1     -10.002 -46.327  28.876  0.00  0.00    -0.286 OA
ENDROOT
BRANCH   1  16
ATOM     16  O   UNL     1     -11.708 -46.220  26.971  0.00  0.00    -0.505 OA
ATOM     17  H   UNL     1     -11.034 -46.734  27.370  0.00  0.00    +0.292 HD
ENDBRANCH   1  16
BRANCH   5  18
ATOM     18  C   UNL     1     -14.472 -42.259  26.709  0.00  0.00    +0.338 C 
ATOM     19  O   UNL     1     -14.810 -42.545  25.547  0.00  0.00    -0.245 OA
BRANCH  18  20
ATOM     20  O   UNL     1     -15.078 -41.220  27.370  0.00  0.00    -0.477 OA
ATOM     21  H   UNL     1     -14.820 -41.008  28.246  0.00  0.00    +0.295 HD
ENDBRANCH  18  20
ENDBRANCH   5  18
BRANCH  10  22
ATOM     22  O   UNL     1      -8.269 -46.512  30.750  0.00  0.00    -0.505 OA
ATOM     23  H   UNL     1      -8.655 -46.919  29.999  0.00  0.00    +0.292 HD
ENDBRANCH  10  22
TORSDOF 4
