REMARK  Name = =
REMARK  2 active torsions:
REMARK  status: ('A' for Active; 'I' for Inactive)
REMARK    1  A    between atoms: N_1  and  N_4
REMARK    2  A    between atoms: N_1  and  S_5
REMARK                            x       y       z     vdW  Elec       q    Type
REMARK                         _______ _______ _______ _____ _____    ______ ____
ROOT
ATOM      1  N   UNL     1      -6.309  -1.947  32.506  0.00  0.00    -0.115 NA
ATOM      2  H   UNL     1      -6.450  -2.170  33.491  0.00  0.00    +0.171 HD
ENDROOT
BRANCH   1   5
ATOM      3  C   UNL     1      -8.551  -1.769  31.610  0.00  0.00    +0.315 C 
ATOM      4  O   UNL     1      -8.584  -0.623  32.180  0.00  0.00    -0.264 OA
ATOM      5  N   UNL     1      -7.348  -2.501  31.766  0.00  0.00    -0.224 N 
ATOM      6  H   UNL     1      -7.249  -3.390  31.356  0.00  0.00    +0.171 HD
ENDBRANCH   1   5
BRANCH   1   7
ATOM      7  S   UNL     1      -4.796  -2.550  32.015  0.00  0.00    +0.034 S 
ATOM      8  O   UNL     1      -4.998  -3.984  31.499  0.00  0.00    -0.160 OA
ATOM      9  O   UNL     1      -4.161  -1.773  30.927  0.00  0.00    -0.160 OA
ATOM     10  H   UNL     1      -3.977  -2.476  33.098  0.00  0.00    +0.231 HD
ENDBRANCH   1   7
TORSDOF 2
