REMARK  Name = =
REMARK  1 active torsions:
REMARK  status: ('A' for Active; 'I' for Inactive)
REMARK    1  A    between atoms: C_2  and  C_7
REMARK                            x       y       z     vdW  Elec       q    Type
REMARK                         _______ _______ _______ _____ _____    ______ ____
ROOT
ATOM      1  C   UNL     1      53.060 155.150  27.222  0.00  0.00    +0.010 C 
ATOM      2  C   UNL     1      52.546 155.880  28.273  0.00  0.00    +0.068 C 
ATOM      3  C   UNL     1      51.454 155.311  28.933  0.00  0.00    +0.010 C 
ATOM      4  C   UNL     1      50.937 154.095  28.544  0.00  0.00    +0.001 C 
ATOM      5  C   UNL     1      51.476 153.392  27.489  0.00  0.00    +0.000 C 
ATOM      6  C   UNL     1      52.543 153.929  26.830  0.00  0.00    +0.001 C 
ENDROOT
BRANCH   2   7
ATOM      7  C   UNL     1      53.090 157.146  28.672  0.00  0.00    +0.100 C 
ATOM      8  N   UNL     1      53.515 158.185  28.991  0.00  0.00    -0.191 NA
ENDBRANCH   2   7
TORSDOF 1
