REMARK  Name = =
REMARK  4 active torsions:
REMARK  status: ('A' for Active; 'I' for Inactive)
REMARK    1  A    between atoms: C_1  and  C_9
REMARK    2  A    between atoms: C_2  and  C_13
REMARK    3  A    between atoms: C_8  and  C_10
REMARK    4  A    between atoms: C_10  and  O_12
REMARK                            x       y       z     vdW  Elec       q    Type
REMARK                         _______ _______ _______ _____ _____    ______ ____
ROOT
ATOM      1  C   UNL     1      52.550 155.051  27.508  0.00  0.00    +0.017 C 
ATOM      2  C   UNL     1      52.203 155.750  28.654  0.00  0.00    +0.067 C 
ATOM      3  C   UNL     1      51.600 155.116  29.712  0.00  0.00    +0.010 C 
ATOM      4  C   UNL     1      51.319 153.756  29.674  0.00  0.00    +0.001 C 
ATOM      5  C   UNL     1      51.676 153.071  28.517  0.00  0.00    -0.000 C 
ATOM      6  C   UNL     1      52.279 153.682  27.445  0.00  0.00    -0.001 C 
ENDROOT
BRANCH   1   9
ATOM      7  O   UNL     1      52.480 155.971  25.186  0.00  0.00    -0.338 OA
ATOM      8  C   UNL     1      53.523 154.955  25.176  0.00  0.00    +0.245 C 
ATOM      9  C   UNL     1      53.196 155.703  26.372  0.00  0.00    +0.177 C 
BRANCH   8  10
ATOM     10  C   UNL     1      54.689 155.222  24.331  0.00  0.00    +0.344 C 
ATOM     11  O   UNL     1      55.209 154.350  23.587  0.00  0.00    -0.247 OA
BRANCH  10  12
ATOM     12  O   UNL     1      55.298 156.481  24.304  0.00  0.00    -0.478 OA
ATOM     13  H   UNL     1      54.961 157.176  24.834  0.00  0.00    +0.295 HD
ENDBRANCH  10  12
ENDBRANCH   8  10
ENDBRANCH   1   9
BRANCH   2  14
ATOM     14  C   UNL     1      52.489 157.173  28.737  0.00  0.00    +0.100 C 
ATOM     15  N   UNL     1      52.706 158.285  28.809  0.00  0.00    -0.191 NA
ENDBRANCH   2  14
TORSDOF 4
