REMARK  Name = =
REMARK  6 active torsions:
REMARK  status: ('A' for Active; 'I' for Inactive)
REMARK    1  A    between atoms: C_1  and  C_14
REMARK    2  A    between atoms: C_2  and  C_18
REMARK    3  A    between atoms: C_4  and  N_7
REMARK    4  A    between atoms: N_7  and  O_11
REMARK    5  A    between atoms: C_13  and  C_15
REMARK    6  A    between atoms: C_15  and  O_17
REMARK                            x       y       z     vdW  Elec       q    Type
REMARK                         _______ _______ _______ _____ _____    ______ ____
ROOT
ATOM      1  C   UNL     1      53.137 154.828  26.397  0.00  0.00    +0.017 C 
ATOM      2  C   UNL     1      53.166 156.171  26.598  0.00  0.00    +0.068 C 
ATOM      3  C   UNL     1      53.675 157.046  25.660  0.00  0.00    +0.027 C 
ATOM      4  C   UNL     1      54.164 156.421  24.499  0.00  0.00    +0.083 C 
ATOM      5  C   UNL     1      54.173 155.085  24.262  0.00  0.00    +0.017 C 
ATOM      6  C   UNL     1      53.625 154.218  25.260  0.00  0.00    +0.000 C 
ENDROOT
BRANCH   4   7
ATOM      7  N   UNL     1      54.778 157.315  23.523  0.00  0.00    -0.134 N 
ATOM      8  C   UNL     1      54.148 158.550  23.193  0.00  0.00    +0.327 C 
ATOM      9  O   UNL     1      54.598 159.613  23.052  0.00  0.00    -0.250 OA
ATOM     10  N   UNL     1      52.684 158.387  23.037  0.00  0.00    -0.311 N 
ATOM     11  H   UNL     1      52.273 157.500  23.150  0.00  0.00    +0.147 HD
ATOM     12  H   UNL     1      52.122 159.166  22.820  0.00  0.00    +0.147 HD
BRANCH   7  13
ATOM     13  O   UNL     1      55.851 156.878  22.892  0.00  0.00    -0.286 OA
ATOM     14  H   UNL     1      56.121 156.025  23.266  0.00  0.00    +0.242 HD
ENDBRANCH   7  13
ENDBRANCH   4   7
BRANCH   1  17
ATOM     15  O   UNL     1      51.127 153.705  27.280  0.00  0.00    -0.338 OA
ATOM     16  C   UNL     1      52.025 152.721  26.673  0.00  0.00    +0.245 C 
ATOM     17  C   UNL     1      52.443 154.007  27.447  0.00  0.00    +0.177 C 
BRANCH  16  18
ATOM     18  C   UNL     1      51.885 151.410  27.276  0.00  0.00    +0.344 C 
ATOM     19  O   UNL     1      51.636 151.223  28.480  0.00  0.00    -0.247 OA
BRANCH  18  20
ATOM     20  O   UNL     1      52.046 150.286  26.470  0.00  0.00    -0.478 OA
ATOM     21  H   UNL     1      52.234 150.387  25.558  0.00  0.00    +0.295 HD
ENDBRANCH  18  20
ENDBRANCH  16  18
ENDBRANCH   1  17
BRANCH   2  22
ATOM     22  C   UNL     1      52.722 156.703  27.810  0.00  0.00    +0.100 C 
ATOM     23  N   UNL     1      52.365 157.160  28.804  0.00  0.00    -0.191 NA
ENDBRANCH   2  22
TORSDOF 6
