REMARK  Name = =
REMARK  9 active torsions:
REMARK  status: ('A' for Active; 'I' for Inactive)
REMARK    1  A    between atoms: C_1  and  C_22
REMARK    2  A    between atoms: C_2  and  C_26
REMARK    3  A    between atoms: C_4  and  N_7
REMARK    4  A    between atoms: C_5  and  C_12
REMARK    5  A    between atoms: N_7  and  O_11
REMARK    6  A    between atoms: C_14  and  C_17
REMARK    7  A    between atoms: C_17  and  O_19
REMARK    8  A    between atoms: C_21  and  C_23
REMARK    9  A    between atoms: C_23  and  O_25
REMARK                            x       y       z     vdW  Elec       q    Type
REMARK                         _______ _______ _______ _____ _____    ______ ____
ROOT
ATOM      1  C   UNL     1      53.762 156.075  25.872  0.00  0.00    +0.017 C 
ATOM      2  C   UNL     1      52.984 156.151  26.909  0.00  0.00    +0.068 C 
ATOM      3  C   UNL     1      52.573 154.900  27.440  0.00  0.00    +0.027 C 
ATOM      4  C   UNL     1      53.035 153.730  26.842  0.00  0.00    +0.080 C 
ATOM      5  C   UNL     1      53.934 153.722  25.721  0.00  0.00    +0.001 C 
ATOM      6  C   UNL     1      54.315 155.069  25.206  0.00  0.00    -0.004 C 
ENDROOT
BRANCH   4   7
ATOM      7  N   UNL     1      52.373 152.524  27.107  0.00  0.00    -0.134 N 
ATOM      8  C   UNL     1      52.252 151.887  28.347  0.00  0.00    +0.327 C 
ATOM      9  O   UNL     1      51.273 150.971  28.404  0.00  0.00    -0.250 OA
ATOM     10  N   UNL     1      52.987 152.083  29.499  0.00  0.00    -0.311 N 
ATOM     11  H   UNL     1      53.717 152.744  29.511  0.00  0.00    +0.147 HD
ATOM     12  H   UNL     1      52.781 151.562  30.309  0.00  0.00    +0.147 HD
BRANCH   7  13
ATOM     13  O   UNL     1      51.759 151.831  26.013  0.00  0.00    -0.287 OA
ATOM     14  H   UNL     1      51.889 152.337  25.196  0.00  0.00    +0.242 HD
ENDBRANCH   7  13
ENDBRANCH   4   7
BRANCH   5  15
ATOM     15  C   UNL     1      54.519 152.625  25.088  0.00  0.00    +0.068 C 
ATOM     16  C   UNL     1      54.268 151.278  25.696  0.00  0.00    -0.011 C 
ATOM     17  C   UNL     1      53.900 150.353  24.601  0.00  0.00    +0.072 C 
ATOM     18  C   UNL     1      53.931 151.191  23.530  0.00  0.00    +0.002 C 
ATOM     19  C   UNL     1      54.231 152.372  23.573  0.00  0.00    -0.017 C 
BRANCH  17  20
ATOM     20  C   UNL     1      53.691 148.961  24.922  0.00  0.00    +0.338 C 
ATOM     21  O   UNL     1      54.915 148.329  24.796  0.00  0.00    -0.245 OA
BRANCH  20  22
ATOM     22  O   UNL     1      52.712 148.187  25.275  0.00  0.00    -0.477 OA
ATOM     23  H   UNL     1      51.851 148.540  25.382  0.00  0.00    +0.295 HD
ENDBRANCH  20  22
ENDBRANCH  17  20
ENDBRANCH   5  15
BRANCH   1  26
ATOM     24  O   UNL     1      55.458 157.497  24.993  0.00  0.00    -0.338 OA
ATOM     25  C   UNL     1      54.701 157.624  23.961  0.00  0.00    +0.245 C 
ATOM     26  C   UNL     1      53.948 157.495  25.188  0.00  0.00    +0.177 C 
BRANCH  25  27
ATOM     27  C   UNL     1      54.411 158.874  23.163  0.00  0.00    +0.344 C 
ATOM     28  O   UNL     1      53.979 159.772  22.760  0.00  0.00    -0.247 OA
BRANCH  27  29
ATOM     29  O   UNL     1      55.761 158.701  22.206  0.00  0.00    -0.478 OA
ATOM     30  H   UNL     1      56.341 157.978  22.341  0.00  0.00    +0.295 HD
ENDBRANCH  27  29
ENDBRANCH  25  27
ENDBRANCH   1  26
BRANCH   2  31
ATOM     31  C   UNL     1      52.479 157.410  27.492  0.00  0.00    +0.100 C 
ATOM     32  N   UNL     1      52.077 158.408  27.966  0.00  0.00    -0.191 NA
ENDBRANCH   2  31
TORSDOF 9
