REMARK  Name = =
REMARK  0 active torsions:
REMARK  status: ('A' for Active; 'I' for Inactive)
REMARK                            x       y       z     vdW  Elec       q    Type
REMARK                         _______ _______ _______ _____ _____    ______ ____
ROOT
ATOM      1  C   UNL     1      52.867 156.297  27.175  0.00  0.00    +0.128 C 
ATOM      2  S   UNL     1      52.442 157.006  28.825  0.00  0.00    -0.121 S 
ATOM      3  C   UNL     1      51.317 155.631  29.321  0.00  0.00    +0.076 C 
ATOM      4  C   UNL     1      51.949 154.559  28.422  0.00  0.00    +0.081 C 
ATOM      5  N   UNL     1      52.018 155.171  27.182  0.00  0.00    -0.288 NA
ATOM      6  H   UNL     1      52.368 154.495  26.504  0.00  0.00    +0.124 HD
ENDROOT
TORSDOF 0
