REMARK  Name = =
REMARK  4 active torsions:
REMARK  status: ('A' for Active; 'I' for Inactive)
REMARK    1  A    between atoms: C_1  and  O_11
REMARK    2  A    between atoms: C_5  and  C_9
REMARK    3  A    between atoms: C_6  and  O_8
REMARK    4  A    between atoms: O_11  and  N_16
REMARK                            x       y       z     vdW  Elec       q    Type
REMARK                         _______ _______ _______ _____ _____    ______ ____
ROOT
ATOM      1  C   UNL     1      51.498 157.030  29.532  0.00  0.00    +0.153 C 
ATOM      2  C   UNL     1      52.441 157.580  28.808  0.00  0.00    +0.077 C 
ATOM      3  C   UNL     1      52.936 156.942  27.595  0.00  0.00    +0.204 C 
ATOM      4  O   UNL     1      53.843 157.492  26.917  0.00  0.00    -0.286 OA
ATOM      5  C   UNL     1      52.340 155.668  27.218  0.00  0.00    +0.111 C 
ATOM      6  C   UNL     1      51.393 155.125  27.953  0.00  0.00    +0.125 C 
ATOM      7  C   UNL     1      50.889 155.757  29.173  0.00  0.00    +0.130 C 
ENDROOT
BRANCH   6   8
ATOM      8  O   UNL     1      50.869 153.888  27.515  0.00  0.00    -0.509 OA
ATOM      9  H   UNL     1      51.198 153.491  26.733  0.00  0.00    +0.292 HD
ENDBRANCH   6   8
BRANCH   5  10
ATOM     10  C   UNL     1      52.809 154.996  26.006  0.00  0.00    +0.240 C 
ATOM     11  O   UNL     1      54.022 154.948  25.734  0.00  0.00    -0.283 OA
ENDBRANCH   5  10
BRANCH   1  12
ATOM     12  O   UNL     1      51.062 157.676  30.676  0.00  0.00    -0.404 OA
BRANCH  12  17
ATOM     13  C   UNL     1      48.923 158.503  30.203  0.00  0.00    +0.171 C 
ATOM     14  S   UNL     1      48.333 160.241  30.033  0.00  0.00    -0.118 S 
ATOM     15  C   UNL     1      50.002 161.010  29.903  0.00  0.00    +0.080 C 
ATOM     16  C   UNL     1      50.803 159.736  29.586  0.00  0.00    +0.126 C 
ATOM     17  N   UNL     1      50.320 158.795  30.561  0.00  0.00    -0.109 NA
ENDBRANCH  12  17
ENDBRANCH   1  12
TORSDOF 4
