REMARK  Name = =
REMARK  5 active torsions:
REMARK  status: ('A' for Active; 'I' for Inactive)
REMARK    1  A    between atoms: C_1  and  O_15
REMARK    2  A    between atoms: C_5  and  C_8
REMARK    3  A    between atoms: C_6  and  O_14
REMARK    4  A    between atoms: O_15  and  N_20
REMARK    5  A    between atoms: C_16  and  C_25
REMARK                            x       y       z     vdW  Elec       q    Type
REMARK                         _______ _______ _______ _____ _____    ______ ____
ROOT
ATOM      1  C   UNL     1      50.226 159.358  29.857  0.00  0.00    +0.153 C 
ATOM      2  C   UNL     1      49.522 158.280  30.003  0.00  0.00    +0.078 C 
ATOM      3  C   UNL     1      50.064 156.958  29.624  0.00  0.00    +0.205 C 
ATOM      4  O   UNL     1      49.376 155.930  29.770  0.00  0.00    -0.286 OA
ATOM      5  C   UNL     1      51.408 156.917  29.086  0.00  0.00    +0.122 C 
ATOM      6  C   UNL     1      52.088 158.038  28.953  0.00  0.00    +0.126 C 
ATOM      7  C   UNL     1      51.575 159.356  29.321  0.00  0.00    +0.130 C 
ENDROOT
BRANCH   5   8
ATOM      8  C   UNL     1      52.071 155.672  28.667  0.00  0.00    +0.257 C 
ATOM      9  N   UNL     1      51.474 154.394  28.733  0.00  0.00    -0.252 N 
ATOM     10  C   UNL     1      52.204 153.226  28.299  0.00  0.00    +0.229 C 
ATOM     11  O   UNL     1      53.381 153.374  27.863  0.00  0.00    -0.275 OA
ATOM     12  C   UNL     1      51.543 151.917  28.384  0.00  0.00    +0.095 C 
ATOM     13  O   UNL     1      53.265 155.714  28.211  0.00  0.00    -0.270 OA
ATOM     14  H   UNL     1      50.556 154.299  29.076  0.00  0.00    +0.158 HD
ENDBRANCH   5   8
BRANCH   6  15
ATOM     15  O   UNL     1      53.409 157.970  28.421  0.00  0.00    -0.509 OA
ATOM     16  H   UNL     1      53.772 157.143  28.174  0.00  0.00    +0.292 HD
ENDBRANCH   6  15
BRANCH   1  17
ATOM     17  O   UNL     1      49.677 160.574  30.225  0.00  0.00    -0.404 OA
BRANCH  17  22
ATOM     18  C   UNL     1      49.337 160.512  32.550  0.00  0.00    +0.198 C 
ATOM     19  S   UNL     1      50.950 159.996  33.269  0.00  0.00    -0.113 S 
ATOM     20  C   UNL     1      52.008 161.091  32.234  0.00  0.00    +0.080 C 
ATOM     21  C   UNL     1      50.908 161.984  31.648  0.00  0.00    +0.126 C 
ATOM     22  N   UNL     1      49.778 161.203  31.381  0.00  0.00    -0.105 NA
BRANCH  18  27
ATOM     23  N   UNL     1      48.694 161.526  34.795  0.00  0.00    -0.220 N 
ATOM     24  N   UNL     1      47.933 162.536  35.228  0.00  0.00    -0.158 NA
ATOM     25  C   UNL     1      47.389 163.137  34.137  0.00  0.00    +0.218 C 
ATOM     26  N   UNL     1      47.833 162.478  33.063  0.00  0.00    -0.208 NA
ATOM     27  C   UNL     1      48.650 161.468  33.454  0.00  0.00    +0.154 C 
ATOM     28  H   UNL     1      49.209 160.917  35.372  0.00  0.00    +0.176 HD
ENDBRANCH  18  27
ENDBRANCH  17  22
ENDBRANCH   1  17
TORSDOF 5
