@<TRIPOS>MOLECULE
out_folder/2v5z/2v5z_lig.pdb
 39 40 0 0 0
SMALL
GASTEIGER

@<TRIPOS>ATOM
      1  F3        47.1530  159.9800   32.0100 F     601  SAG601     -0.2055
      2  C3        48.3850  160.2610   31.8350 C.ar  601  SAG601      0.1238
      3  C2        49.1650  159.5160   30.9410 C.ar  601  SAG601     -0.0201
      4  C4        48.9530  161.3100   32.5280 C.ar  601  SAG601     -0.0264
      5  C5        50.2720  161.6360   32.3310 C.ar  601  SAG601     -0.0587
      6  C6        51.0530  160.9240   31.4430 C.ar  601  SAG601     -0.0552
      7  C1        50.4850  159.8520   30.7440 C.ar  601  SAG601     -0.0077
      8  C7        51.3280  159.0110   29.7940 C.3   601  SAG601      0.1147
      9  O8        51.0540  157.6380   29.9830 O.3   601  SAG601     -0.4874
     10  C9        51.5330  156.6540   29.1670 C.ar  601  SAG601      0.1210
     11  C10       51.0810  155.3840   29.3060 C.ar  601  SAG601     -0.0193
     12  C11       51.5320  154.3980   28.4740 C.ar  601  SAG601     -0.0497
     13  C14       52.4340  156.8960   28.1560 C.ar  601  SAG601     -0.0193
     14  C13       52.8680  155.8980   27.2900 C.ar  601  SAG601     -0.0497
     15  C12       52.4150  154.6130   27.4780 C.ar  601  SAG601     -0.0071
     16  C15       52.7430  153.5590   26.7790 C.2   601  SAG601      0.0301
     17  N16       53.8220  153.5990   25.8650 N.2   601  SAG601     -0.2787
     18  C17       54.0270  152.5730   24.8680 C.3   601  SAG601      0.1235
     19  C18       54.3110  153.2250   23.5410 C.3   601  SAG601     -0.0341
     20  C19       55.2770  151.8310   25.1690 C.2   601  SAG601      0.2347
     21  O20       55.3880  150.7070   24.7610 O.2   601  SAG601     -0.2737
     22  N21       56.2150  152.4970   25.8380 N.am  601  SAG601     -0.3276
     23 H          48.7516  158.7188   30.4324 H     601  SAG601      0.0650
     24 H          48.3841  161.8518   33.1972 H     601  SAG601      0.0646
     25 H          50.6852  162.4240   32.8539 H     601  SAG601      0.0619
     26 H          52.0423  161.1784   31.2963 H     601  SAG601      0.0621
     27 H          51.0985  159.2814   28.7845 H     601  SAG601      0.0748
     28 H          52.3636  159.1909   29.9943 H     601  SAG601      0.0748
     29 H          50.3938  155.1606   30.0428 H     601  SAG601      0.0654
     30 H          51.1783  153.4389   28.6155 H     601  SAG601      0.0625
     31 H          52.8012  157.8529   28.0358 H     601  SAG601      0.0654
     32 H          53.5187  156.1178   26.5197 H     601  SAG601      0.0625
     33 H          52.2072  152.6847   26.8953 H     601  SAG601      0.0831
     34 H          53.1602  151.9458   24.8571 H     601  SAG601      0.0638
     35 H          55.1865  153.8346   23.6232 H     601  SAG601      0.0255
     36 H          53.4780  153.8336   23.2571 H     601  SAG601      0.0255
     37 H          54.4703  152.4702   22.7996 H     601  SAG601      0.0255
     38 H          57.0649  152.0552   26.0654 H     601  SAG601      0.1450
     39 H          56.0590  153.4315   26.1055 H     601  SAG601      0.1450
@<TRIPOS>BOND
     1    19    18    1
     2    21    20    2
     3    18    20    1
     4    18    17    1
     5    20    22   am
     6    17    16    2
     7    16    15    1
     8    14    15   ar
     9    14    13   ar
    10    15    12   ar
    11    13    10   ar
    12    12    11   ar
    13    10    11   ar
    14    10     9    1
    15     8     9    1
    16     8     7    1
    17     7     3   ar
    18     7     6   ar
    19     3     2   ar
    20     6     5   ar
    21     2     1    1
    22     2     4   ar
    23     5     4   ar
    24     3    23    1
    25     4    24    1
    26     5    25    1
    27     6    26    1
    28     8    27    1
    29     8    28    1
    30    11    29    1
    31    12    30    1
    32    13    31    1
    33    14    32    1
    34    16    33    1
    35    18    34    1
    36    19    35    1
    37    19    36    1
    38    19    37    1
    39    22    38    1
    40    22    39    1
