REMARK  Name = =
REMARK  4 active torsions:
REMARK  status: ('A' for Active; 'I' for Inactive)
REMARK    1  A    between atoms: N_1  and  S_13
REMARK    2  A    between atoms: C_4  and  C_7
REMARK    3  A    between atoms: S_13  and  S_14
REMARK    4  A    between atoms: S_13  and  S_15
REMARK                            x       y       z     vdW  Elec       q    Type
REMARK                         _______ _______ _______ _____ _____    ______ ____
ROOT
ATOM      1  N   UNL     1     -16.419 -42.480  27.724  0.00  0.00    -0.227 NA
ATOM      2  C   UNL     1     -15.838 -42.924  26.480  0.00  0.00    +0.088 C 
ATOM      3  C   UNL     1     -16.453 -42.336  25.272  0.00  0.00    +0.044 C 
ATOM      4  C   UNL     1     -17.797 -41.748  25.459  0.00  0.00    -0.024 C 
ATOM      5  C   UNL     1     -18.460 -41.887  26.589  0.00  0.00    -0.012 C 
ATOM      6  C   UNL     1     -17.852 -42.646  27.699  0.00  0.00    +0.109 C 
ENDROOT
BRANCH   4   7
ATOM      7  C   UNL     1     -18.359 -41.004  24.329  0.00  0.00    -0.004 C 
ATOM      8  C   UNL     1     -17.603 -40.819  23.163  0.00  0.00    -0.000 C 
ATOM      9  C   UNL     1     -18.054 -40.135  22.068  0.00  0.00    -0.000 C 
ATOM     10  C   UNL     1     -19.313 -39.595  22.095  0.00  0.00    -0.000 C 
ATOM     11  C   UNL     1     -20.076 -39.761  23.224  0.00  0.00    -0.000 C 
ATOM     12  C   UNL     1     -19.610 -40.452  24.322  0.00  0.00    -0.000 C 
ENDBRANCH   4   7
BRANCH   1  13
ATOM     13  S   UNL     1     -15.720 -43.183  29.047  0.00  0.00    -0.102 S 
ATOM     14  H   UNL     1     -15.951 -44.450  29.483  0.00  0.00    +0.119 HD
BRANCH  13  15
ATOM     15  S   UNL     1     -14.117 -43.286  28.638  0.00  0.00    -0.109 S 
ATOM     16  H   UNL     1     -13.691 -42.083  28.168  0.00  0.00    +0.114 HD
ENDBRANCH  13  15
BRANCH  13  17
ATOM     17  S   UNL     1     -16.365 -42.165  30.300  0.00  0.00    -0.109 S 
ATOM     18  H   UNL     1     -16.184 -40.860  29.962  0.00  0.00    +0.114 HD
ENDBRANCH  13  17
ENDBRANCH   1  13
TORSDOF 4
