REMARK  Name = =
REMARK  5 active torsions:
REMARK  status: ('A' for Active; 'I' for Inactive)
REMARK    1  A    between atoms: N_1  and  S_13
REMARK    2  A    between atoms: C_4  and  C_7
REMARK    3  A    between atoms: S_13  and  S_15
REMARK    4  A    between atoms: S_13  and  S_16
REMARK    5  A    between atoms: S_16  and  N_17
REMARK                            x       y       z     vdW  Elec       q    Type
REMARK                         _______ _______ _______ _____ _____    ______ ____
ROOT
ATOM      1  N   UNL     1     -16.359 -42.771  28.093  0.00  0.00    -0.215 NA
ATOM      2  C   UNL     1     -17.732 -42.328  28.270  0.00  0.00    +0.089 C 
ATOM      3  C   UNL     1     -18.640 -42.731  27.114  0.00  0.00    +0.044 C 
ATOM      4  C   UNL     1     -18.120 -41.972  25.942  0.00  0.00    -0.024 C 
ATOM      5  C   UNL     1     -16.820 -42.162  25.754  0.00  0.00    -0.012 C 
ATOM      6  C   UNL     1     -16.118 -43.044  26.675  0.00  0.00    +0.110 C 
ENDROOT
BRANCH   4   7
ATOM      7  C   UNL     1     -18.936 -41.112  25.090  0.00  0.00    -0.004 C 
ATOM      8  C   UNL     1     -18.603 -40.843  23.785  0.00  0.00    -0.000 C 
ATOM      9  C   UNL     1     -19.423 -40.024  23.033  0.00  0.00    -0.000 C 
ATOM     10  C   UNL     1     -20.572 -39.461  23.540  0.00  0.00    -0.000 C 
ATOM     11  C   UNL     1     -20.919 -39.719  24.841  0.00  0.00    -0.000 C 
ATOM     12  C   UNL     1     -20.082 -40.551  25.597  0.00  0.00    -0.000 C 
ENDBRANCH   4   7
BRANCH   1  13
ATOM     13  S   UNL     1     -15.457 -42.906  29.057  0.00  0.00    -0.003 S 
BRANCH  13  14
ATOM     14  S   UNL     1     -13.888 -43.171  28.287  0.00  0.00    -0.094 S 
ATOM     15  H   UNL     1     -14.074 -43.718  27.056  0.00  0.00    +0.115 HD
ENDBRANCH  13  14
BRANCH  13  16
ATOM     16  S   UNL     1     -15.839 -42.337  30.398  0.00  0.00    +0.053 S 
BRANCH  16  17
ATOM     17  N   UNL     1     -14.842 -42.516  31.722  0.00  0.00    -0.111 N 
ATOM     18  N   UNL     1     -15.138 -43.167  32.860  0.00  0.00    -0.041 NA
ATOM     19  N   UNL     1     -14.099 -43.077  33.624  0.00  0.00    -0.024 NA
ATOM     20  N   UNL     1     -13.114 -42.400  33.064  0.00  0.00    -0.107 NA
ATOM     21  C   UNL     1     -13.580 -42.042  31.857  0.00  0.00    +0.222 C 
ENDBRANCH  16  17
ENDBRANCH  13  16
ENDBRANCH   1  13
TORSDOF 5
REMARK  Name = =
REMARK  5 active torsions:
REMARK  status: ('A' for Active; 'I' for Inactive)
REMARK    1  A    between atoms: N_1  and  S_13
REMARK    2  A    between atoms: C_4  and  C_7
REMARK    3  A    between atoms: S_13  and  S_15
REMARK    4  A    between atoms: S_13  and  S_16
REMARK    5  A    between atoms: S_16  and  N_17
REMARK                            x       y       z     vdW  Elec       q    Type
REMARK                         _______ _______ _______ _____ _____    ______ ____
ROOT
ATOM      1  H   UNK     1     -14.829 -40.838  28.442  0.00  0.00    +0.000 HD
ENDROOT
TORSDOF 0
