REMARK  Name = =
REMARK  2 active torsions:
REMARK  status: ('A' for Active; 'I' for Inactive)
REMARK    1  A    between atoms: C_1  and  C_19
REMARK    2  A    between atoms: C_26  and  O_27
REMARK                            x       y       z     vdW  Elec       q    Type
REMARK                         _______ _______ _______ _____ _____    ______ ____
ROOT
ATOM      1  C   UNL     1      53.158 155.541  28.268  0.00  0.00    +0.027 C 
ATOM      2  C   UNL     1      51.871 156.160  28.772  0.00  0.00    +0.002 C 
ATOM      3  C   UNL     1      52.370 157.604  28.935  0.00  0.00    +0.000 C 
ATOM      4  C   UNL     1      51.328 158.523  29.392  0.00  0.00    +0.000 C 
ATOM      5  C   UNL     1      50.133 157.801  30.036  0.00  0.00    +0.000 C 
ATOM      6  C   UNL     1      49.463 158.839  30.866  0.00  0.00    +0.000 C 
ATOM      7  C   UNL     1      49.076 160.078  30.142  0.00  0.00    +0.000 C 
ATOM      8  C   UNL     1      50.025 160.560  29.119  0.00  0.00    +0.000 C 
ATOM      9  C   UNL     1      50.775 159.470  28.393  0.00  0.00    +0.000 C 
ATOM     10  C   UNL     1      48.886 161.167  31.208  0.00  0.00    +0.000 C 
ATOM     11  C   UNL     1      47.836 160.759  32.188  0.00  0.00    +0.000 C 
ATOM     12  C   UNL     1      48.012 159.380  32.742  0.00  0.00    +0.000 C 
ATOM     13  C   UNL     1      48.298 158.348  31.664  0.00  0.00    +0.000 C 
ATOM     14  C   UNL     1      50.718 156.728  30.923  0.00  0.00    +0.000 C 
ATOM     15  C   UNL     1      51.462 155.682  30.117  0.00  0.00    +0.000 C 
ATOM     16  C   UNL     1      52.951 157.861  27.591  0.00  0.00    +0.000 C 
ATOM     17  C   UNL     1      53.526 156.525  27.150  0.00  0.00    +0.002 C 
ENDROOT
BRANCH   1  19
ATOM     18  N   UNL     1      53.464 153.755  26.633  0.00  0.00    -0.268 NA
ATOM     19  C   UNL     1      52.948 154.174  27.731  0.00  0.00    +0.125 C 
ATOM     20  C   UNL     1      52.150 153.106  28.329  0.00  0.00    +0.002 C 
ATOM     21  C   UNL     1      52.297 151.985  27.376  0.00  0.00    +0.049 C 
ATOM     22  C   UNL     1      53.101 152.429  26.369  0.00  0.00    +0.079 C 
ATOM     23  C   UNL     1      53.387 151.531  25.333  0.00  0.00    +0.019 C 
ATOM     24  C   UNL     1      52.885 150.266  25.330  0.00  0.00    +0.005 C 
ATOM     25  C   UNL     1      52.070 149.806  26.346  0.00  0.00    +0.037 C 
ATOM     26  C   UNL     1      51.788 150.684  27.360  0.00  0.00    +0.135 C 
BRANCH  26  27
ATOM     27  O   UNL     1      50.972 150.272  28.409  0.00  0.00    -0.505 OA
ATOM     28  H   UNL     1      50.621 149.403  28.416  0.00  0.00    +0.292 HD
ENDBRANCH  26  27
ENDBRANCH   1  19
TORSDOF 2
