MODEL 1
REMARK VINA RESULT:   -10.005      0.000      0.000
REMARK INTER + INTRA:         -16.339
REMARK INTER:                 -14.391
REMARK INTRA:                  -1.948
REMARK UNBOUND:                -1.948
REMARK  Name = =
REMARK  8 active torsions:
REMARK  status: ('A' for Active; 'I' for Inactive)
REMARK    1  A    between atoms: C_1  and  C_37
REMARK    2  A    between atoms: C_2  and  N_20
REMARK    3  A    between atoms: C_5  and  C_7
REMARK    4  A    between atoms: C_13  and  N_17
REMARK    5  A    between atoms: N_18  and  N_19
REMARK    6  A    between atoms: N_22  and  C_26
REMARK    7  A    between atoms: C_37  and  O_39
REMARK    8  A    between atoms: O_39  and  C_40
REMARK                            x       y       z     vdW  Elec       q    Type
REMARK                         _______ _______ _______ _____ _____    ______ ____
ROOT
ATOM      1  C   UNL     1       0.041  -3.429  29.116  0.00  0.00    +0.089 C 
ATOM      2  C   UNL     1      -0.423  -3.220  27.855  0.00  0.00    +0.055 C 
ATOM      3  C   UNL     1      -1.808  -3.245  27.652  0.00  0.00    +0.015 C 
ATOM      4  C   UNL     1      -2.672  -3.472  28.696  0.00  0.00    +0.003 C 
ATOM      5  C   UNL     1      -2.192  -3.683  29.981  0.00  0.00    +0.020 C 
ATOM      6  C   UNL     1      -0.845  -3.658  30.176  0.00  0.00    +0.009 C 
ENDROOT
BRANCH   5   7
ATOM      7  C   UNL     1      -3.105  -3.832  31.111  0.00  0.00    +0.104 C 
ATOM      8  N   UNL     1      -3.739  -2.753  31.597  0.00  0.00    -0.148 NA
ATOM      9  N   UNL     1      -4.562  -2.858  32.603  0.00  0.00    -0.146 NA
ATOM     10  C   UNL     1      -4.845  -4.007  33.225  0.00  0.00    +0.122 C 
ATOM     11  C   UNL     1      -4.213  -5.142  32.754  0.00  0.00    +0.024 C 
ATOM     12  C   UNL     1      -3.325  -5.058  31.671  0.00  0.00    +0.040 C 
ATOM     13  C   UNL     1      -2.762  -6.234  31.242  0.00  0.00    +0.106 C 
ATOM     14  C   UNL     1      -3.084  -7.435  31.885  0.00  0.00    +0.021 C 
ATOM     15  C   UNL     1      -3.950  -7.504  32.942  0.00  0.00    +0.002 C 
ATOM     16  C   UNL     1      -4.523  -6.324  33.377  0.00  0.00    +0.002 C 
BRANCH  13  17
ATOM     17  N   UNL     1      -1.906  -6.233  30.122  0.00  0.00    -0.133 NA
ATOM     18  N   UNL     1      -1.495  -7.283  29.535  0.00  0.00    -0.084 NA
BRANCH  18  19
ATOM     19  N   UNL     1      -0.643  -7.169  28.428  0.00  0.00    -0.264 N 
ATOM     20  H   UNL     1      -0.880  -7.606  27.578  0.00  0.00    +0.166 HD
ATOM     21  H   UNL     1       0.193  -6.654  28.501  0.00  0.00    +0.166 HD
ENDBRANCH  18  19
ENDBRANCH  13  17
ENDBRANCH   5   7
BRANCH   2  22
ATOM     22  N   UNL     1       0.439  -2.918  26.739  0.00  0.00    -0.294 N 
ATOM     23  C   UNL     1       1.163  -3.981  26.096  0.00  0.00    +0.169 C 
ATOM     24  N   UNL     1       1.962  -3.684  24.982  0.00  0.00    -0.254 NA
ATOM     25  C   UNL     1       2.036  -2.343  24.525  0.00  0.00    +0.076 C 
ATOM     26  C   UNL     1       0.793  -1.537  24.806  0.00  0.00    +0.039 C 
ATOM     27  C   UNL     1       0.593  -1.560  26.291  0.00  0.00    +0.093 C 
BRANCH  24  28
ATOM     28  C   UNL     1       3.358  -4.112  25.199  0.00  0.00    +0.077 C 
ATOM     29  C   UNL     1       3.593  -4.699  26.547  0.00  0.00    +0.019 C 
ATOM     30  C   UNL     1       4.451  -3.799  27.345  0.00  0.00    +0.002 C 
ATOM     31  C   UNL     1       5.671  -4.412  27.968  0.00  0.00    +0.000 C 
ATOM     32  C   UNL     1       6.250  -5.500  27.093  0.00  0.00    +0.000 C 
ATOM     33  C   UNL     1       5.204  -6.590  27.056  0.00  0.00    +0.000 C 
ATOM     34  C   UNL     1       3.869  -6.124  26.633  0.00  0.00    +0.002 C 
ATOM     35  C   UNL     1       3.225  -7.034  25.690  0.00  0.00    +0.004 C 
ATOM     36  C   UNL     1       2.744  -6.427  24.407  0.00  0.00    +0.023 C 
ATOM     37  C   UNL     1       3.553  -5.198  24.171  0.00  0.00    -0.030 C 
ATOM     38  C   UNL     1       4.381  -5.056  23.146  0.00  0.00    -0.008 C 
ENDBRANCH  24  28
ENDBRANCH   2  22
BRANCH   1  39
ATOM     39  C   UNL     1       1.443  -3.487  29.446  0.00  0.00    +0.348 C 
ATOM     40  O   UNL     1       2.159  -2.474  29.385  0.00  0.00    -0.244 OA
BRANCH  39  41
ATOM     41  O   UNL     1       2.038  -4.664  29.841  0.00  0.00    -0.403 OA
BRANCH  41  42
ATOM     42  C   UNL     1       2.015  -5.173  31.124  0.00  0.00    +0.250 C 
ATOM     43  C   UNL     1       1.488  -6.412  31.420  0.00  0.00    +0.213 C 
ATOM     44  N   UNL     1       1.521  -6.805  32.710  0.00  0.00    -0.241 NA
ATOM     45  C   UNL     1       2.036  -6.046  33.674  0.00  0.00    +0.203 C 
ATOM     46  N   UNL     1       2.542  -4.843  33.356  0.00  0.00    -0.092 NA
ATOM     47  N   UNL     1       2.540  -4.402  32.109  0.00  0.00    -0.122 NA
ENDBRANCH  41  42
ENDBRANCH  39  41
ENDBRANCH   1  39
TORSDOF 8
ENDMDL
