REMARK  Name = =
REMARK  4 active torsions:
REMARK  status: ('A' for Active; 'I' for Inactive)
REMARK    1  A    between atoms: C_1  and  C_18
REMARK    2  A    between atoms: C_7  and  C_10
REMARK    3  A    between atoms: C_21  and  C_24
REMARK    4  A    between atoms: N_26  and  N_27
REMARK                            x       y       z     vdW  Elec       q    Type
REMARK                         _______ _______ _______ _____ _____    ______ ____
ROOT
ATOM      1  C   UNL     1     -12.106  -2.436  26.401  0.00  0.00    +0.053 C 
ATOM      2  C   UNL     1     -12.027  -1.963  27.677  0.00  0.00    +0.136 C 
ATOM      3  C   UNL     1     -13.095  -2.087  28.588  0.00  0.00    +0.019 C 
ATOM      4  C   UNL     1     -14.257  -2.695  28.185  0.00  0.00    -0.001 C 
ATOM      5  C   UNL     1     -14.379  -3.190  26.886  0.00  0.00    -0.000 C 
ATOM      6  C   UNL     1     -13.309  -3.043  26.052  0.00  0.00    +0.005 C 
ATOM      7  C   UNL     1     -12.627  -1.497  29.890  0.00  0.00    +0.094 C 
ATOM      8  C   UNL     1     -11.649  -0.488  29.380  0.00  0.00    +0.214 C 
ATOM      9  O   UNL     1     -10.989  -1.301  28.343  0.00  0.00    -0.475 OA
ENDROOT
BRANCH   7  10
ATOM     10  C   UNL     1     -13.616  -1.121  30.834  0.00  0.00    +0.027 C 
ATOM     11  C   UNL     1     -14.511  -0.171  30.669  0.00  0.00    +0.041 C 
ATOM     12  C   UNL     1     -15.504   0.154  31.705  0.00  0.00    +0.196 C 
ATOM     13  O   UNL     1     -16.359   1.084  31.514  0.00  0.00    -0.287 OA
ATOM     14  C   UNL     1     -15.518  -0.577  32.948  0.00  0.00    +0.045 C 
ATOM     15  C   UNL     1     -14.639  -1.540  33.155  0.00  0.00    +0.045 C 
ATOM     16  C   UNL     1     -13.680  -1.833  32.122  0.00  0.00    +0.192 C 
ATOM     17  O   UNL     1     -12.839  -2.768  32.356  0.00  0.00    -0.287 OA
ENDBRANCH   7  10
BRANCH   1  18
ATOM     18  C   UNL     1     -11.032  -2.373  25.424  0.00  0.00    +0.106 C 
ATOM     19  N   UNL     1     -10.997  -3.276  24.394  0.00  0.00    -0.148 NA
ATOM     20  N   UNL     1     -10.015  -3.274  23.508  0.00  0.00    -0.143 NA
ATOM     21  C   UNL     1      -8.981  -2.424  23.511  0.00  0.00    +0.157 C 
ATOM     22  C   UNL     1      -8.955  -1.493  24.517  0.00  0.00    +0.027 C 
ATOM     23  C   UNL     1      -9.993  -1.489  25.461  0.00  0.00    +0.023 C 
BRANCH  21  24
ATOM     24  C   UNL     1      -7.929  -2.508  22.465  0.00  0.00    +0.281 C 
ATOM     25  O   UNL     1      -8.223  -2.987  21.345  0.00  0.00    -0.267 OA
ATOM     26  N   UNL     1      -6.619  -2.069  22.708  0.00  0.00    -0.229 N 
ATOM     27  H   UNL     1      -6.405  -1.698  23.594  0.00  0.00    +0.173 HD
BRANCH  26  28
ATOM     28  N   UNL     1      -5.588  -2.135  21.736  0.00  0.00    -0.226 N 
ATOM     29  C   UNL     1      -4.983  -0.932  21.251  0.00  0.00    +0.316 C 
ATOM     30  O   UNL     1      -5.393   0.151  21.713  0.00  0.00    -0.264 OA
ATOM     31  H   UNL     1      -5.288  -3.009  21.395  0.00  0.00    +0.173 HD
ENDBRANCH  26  28
ENDBRANCH  21  24
ENDBRANCH   1  18
TORSDOF 4
