MODEL 1
REMARK VINA RESULT:   -12.446      0.000      0.000
REMARK INTER + INTRA:         -19.745
REMARK INTER:                 -18.631
REMARK INTRA:                  -1.114
REMARK UNBOUND:                -1.114
REMARK  Name = =
REMARK  9 active torsions:
REMARK  status: ('A' for Active; 'I' for Inactive)
REMARK    1  A    between atoms: N_1  and  C_7
REMARK    2  A    between atoms: C_6  and  N_26
REMARK    3  A    between atoms: C_8  and  O_25
REMARK    4  A    between atoms: C_10  and  C_13
REMARK    5  A    between atoms: N_15  and  S_16
REMARK    6  A    between atoms: S_16  and  C_19
REMARK    7  A    between atoms: C_27  and  O_29
REMARK    8  A    between atoms: O_29  and  C_30
REMARK    9  A    between atoms: C_34  and  C_36
REMARK                            x       y       z     vdW  Elec       q    Type
REMARK                         _______ _______ _______ _____ _____    ______ ____
ROOT
ATOM      1  N   UNL     1     -13.608 -43.297  27.959  0.00  0.00    -0.288 N 
ATOM      2  C   UNL     1     -12.356 -42.601  28.027  0.00  0.00    +0.111 C 
ATOM      3  C   UNL     1     -11.113 -43.391  27.978  0.00  0.00    +0.110 C 
ATOM      4  N   UNL     1     -11.212 -44.768  28.400  0.00  0.00    -0.213 NA
ATOM      5  C   UNL     1     -12.333 -45.304  27.651  0.00  0.00    +0.129 C 
ATOM      6  C   UNL     1     -13.567 -44.650  28.332  0.00  0.00    +0.169 C 
ENDROOT
BRANCH   1   7
ATOM      7  C   UNL     1     -14.364 -42.952  26.823  0.00  0.00    +0.083 C 
ATOM      8  C   UNL     1     -15.600 -42.382  27.052  0.00  0.00    +0.147 C 
ATOM      9  C   UNL     1     -16.348 -42.018  25.941  0.00  0.00    +0.042 C 
ATOM     10  C   UNL     1     -15.890 -42.217  24.642  0.00  0.00    +0.058 C 
ATOM     11  C   UNL     1     -14.673 -42.782  24.472  0.00  0.00    +0.006 C 
ATOM     12  C   UNL     1     -13.887 -43.159  25.568  0.00  0.00    +0.018 C 
BRANCH  10  13
ATOM     13  C   UNL     1     -16.780 -41.747  23.570  0.00  0.00    +0.264 C 
ATOM     14  O   UNL     1     -16.454 -41.743  22.380  0.00  0.00    -0.269 OA
ATOM     15  N   UNL     1     -18.065 -41.292  24.010  0.00  0.00    -0.181 N 
ATOM     16  H   UNL     1     -18.297 -41.303  24.967  0.00  0.00    +0.177 HD
BRANCH  15  17
ATOM     17  S   UNL     1     -19.196 -40.725  22.848  0.00  0.00    +0.076 S 
ATOM     18  O   UNL     1     -18.577 -39.583  22.107  0.00  0.00    -0.150 OA
ATOM     19  O   UNL     1     -19.535 -41.809  21.857  0.00  0.00    -0.150 OA
BRANCH  17  20
ATOM     20  C   UNL     1     -20.619 -40.168  23.688  0.00  0.00    +0.125 C 
ATOM     21  C   UNL     1     -21.671 -39.566  23.076  0.00  0.00    +0.020 C 
ATOM     22  C   UNL     1     -22.754 -39.151  23.842  0.00  0.00    +0.001 C 
ATOM     23  C   UNL     1     -22.795 -39.336  25.225  0.00  0.00    +0.000 C 
ATOM     24  C   UNL     1     -21.730 -39.945  25.846  0.00  0.00    +0.001 C 
ATOM     25  C   UNL     1     -20.659 -40.350  25.060  0.00  0.00    +0.020 C 
ENDBRANCH  17  20
ENDBRANCH  15  17
ENDBRANCH  10  13
BRANCH   8  26
ATOM     26  O   UNL     1     -16.136 -42.152  28.315  0.00  0.00    -0.504 OA
ATOM     27  H   UNL     1     -16.791 -42.726  28.658  0.00  0.00    +0.292 HD
ENDBRANCH   8  26
ENDBRANCH   1   7
BRANCH   6  28
ATOM     28  N   UNL     1     -13.399 -44.743  29.770  0.00  0.00    -0.254 N 
ATOM     29  C   UNL     1     -14.352 -44.287  30.715  0.00  0.00    +0.407 C 
ATOM     30  O   UNL     1     -15.421 -43.778  30.307  0.00  0.00    -0.226 OA
ATOM     31  H   UNL     1     -12.570 -45.149  30.112  0.00  0.00    +0.154 HD
BRANCH  29  32
ATOM     32  O   UNL     1     -14.159 -44.382  32.081  0.00  0.00    -0.410 OA
BRANCH  32  33
ATOM     33  C   UNL     1     -13.424 -43.398  32.720  0.00  0.00    +0.150 C 
ATOM     34  C   UNL     1     -14.188 -42.608  33.602  0.00  0.00    +0.038 C 
ATOM     35  C   UNL     1     -13.580 -41.595  34.305  0.00  0.00    +0.003 C 
ATOM     36  C   UNL     1     -12.232 -41.369  34.132  0.00  0.00    -0.003 C 
ATOM     37  C   UNL     1     -11.463 -42.133  33.270  0.00  0.00    -0.000 C 
ATOM     38  C   UNL     1     -12.095 -43.141  32.579  0.00  0.00    +0.035 C 
BRANCH  37  39
ATOM     39  C   UNL     1     -10.056 -41.820  33.161  0.00  0.00    +0.155 C 
ATOM     40  S   UNL     1      -9.163 -42.994  32.038  0.00  0.00    -0.044 S 
ATOM     41  C   UNL     1      -7.605 -42.941  32.900  0.00  0.00    +0.279 C 
ATOM     42  O   UNL     1      -6.483 -43.474  32.607  0.00  0.00    -0.263 OA
ATOM     43  N   UNL     1      -7.865 -42.133  34.065  0.00  0.00    -0.246 N 
ATOM     44  C   UNL     1      -9.231 -42.013  34.365  0.00  0.00    +0.243 C 
ATOM     45  O   UNL     1      -9.725 -42.062  35.545  0.00  0.00    -0.273 OA
ATOM     46  H   UNL     1      -7.154 -41.708  34.597  0.00  0.00    +0.158 HD
ENDBRANCH  37  39
ENDBRANCH  32  33
ENDBRANCH  29  32
ENDBRANCH   6  28
TORSDOF 9
ENDMDL
