REMARK  Name = =
REMARK  4 active torsions:
REMARK  status: ('A' for Active; 'I' for Inactive)
REMARK    1  A    between atoms: N_1  and  C_7
REMARK    2  A    between atoms: N_6  and  N_12
REMARK    3  A    between atoms: N_12  and  C_13
REMARK    4  A    between atoms: C_13  and  N_15
REMARK                            x       y       z     vdW  Elec       q    Type
REMARK                         _______ _______ _______ _____ _____    ______ ____
ROOT
ATOM      1  N   UNL     1     -11.282 -43.940  29.173  0.00  0.00    -0.184 N 
ATOM      2  C   UNL     1     -12.194 -43.270  30.019  0.00  0.00    +0.311 C 
ATOM      3  O   UNL     1     -11.752 -42.507  30.906  0.00  0.00    -0.252 OA
ATOM      4  N   UNL     1     -13.590 -43.440  29.892  0.00  0.00    -0.313 N 
ATOM      5  C   UNL     1      -9.859 -43.745  29.373  0.00  0.00    +0.195 C 
ATOM      6  N   UNL     1      -9.495 -42.999  30.297  0.00  0.00    -0.161 NA
ATOM      7  H   UNL     1     -13.952 -44.037  29.198  0.00  0.00    +0.147 HD
ATOM      8  H   UNL     1     -14.201 -42.961  30.497  0.00  0.00    +0.147 HD
ENDROOT
BRANCH   1   9
ATOM      9  C   UNL     1     -11.785 -44.791  28.156  0.00  0.00    +0.185 C 
ATOM     10  N   UNL     1     -12.902 -44.670  27.405  0.00  0.00    -0.188 NA
ATOM     11  C   UNL     1     -13.012 -45.704  26.555  0.00  0.00    +0.286 C 
ATOM     12  O   UNL     1     -11.965 -46.463  26.781  0.00  0.00    -0.427 OA
ATOM     13  C   UNL     1     -11.202 -45.967  27.723  0.00  0.00    +0.217 C 
ENDBRANCH   1   9
BRANCH   6  14
ATOM     14  N   UNL     1      -8.319 -42.586  30.777  0.00  0.00    -0.217 N 
ATOM     15  H   UNL     1      -8.129 -41.623  30.700  0.00  0.00    +0.176 HD
BRANCH  14  16
ATOM     16  C   UNL     1      -7.326 -43.372  31.378  0.00  0.00    +0.147 C 
ATOM     17  S   UNL     1      -7.290 -44.982  31.261  0.00  0.00    -0.017 S 
BRANCH  16  18
ATOM     18  N   UNL     1      -6.285 -42.728  32.144  0.00  0.00    -0.339 N 
ATOM     19  H   UNL     1      -6.276 -41.748  32.236  0.00  0.00    +0.144 HD
ATOM     20  H   UNL     1      -5.584 -43.269  32.574  0.00  0.00    +0.144 HD
ENDBRANCH  16  18
ENDBRANCH  14  16
ENDBRANCH   6  14
TORSDOF 4
