REMARK  Name = =
REMARK  1 active torsions:
REMARK  status: ('A' for Active; 'I' for Inactive)
REMARK    1  A    between atoms: N_1  and  S_7
REMARK                            x       y       z     vdW  Elec       q    Type
REMARK                         _______ _______ _______ _____ _____    ______ ____
ROOT
ATOM      1  N   UNL     1     -13.601 -43.017  27.979  0.00  0.00    -0.240 N 
ATOM      2  C   UNL     1     -12.448 -42.335  28.419  0.00  0.00    +0.105 C 
ATOM      3  C   UNL     1     -11.250 -42.916  27.705  0.00  0.00    +0.027 C 
ATOM      4  C   UNL     1     -11.107 -44.332  28.199  0.00  0.00    +0.029 C 
ATOM      5  C   UNL     1     -12.344 -45.140  28.100  0.00  0.00    -0.009 C 
ATOM      6  C   UNL     1     -13.628 -44.421  28.139  0.00  0.00    +0.069 C 
ENDROOT
BRANCH   1   7
ATOM      7  S   UNL     1     -14.330 -42.413  26.544  0.00  0.00    +0.100 S 
ATOM      8  O   UNL     1     -13.549 -42.750  25.281  0.00  0.00    -0.240 OA
ATOM      9  H   UNL     1     -14.424 -41.060  26.645  0.00  0.00    +0.160 HD
ENDBRANCH   1   7
TORSDOF 1
