REMARK  Name = =
REMARK  3 active torsions:
REMARK  status: ('A' for Active; 'I' for Inactive)
REMARK    1  A    between atoms: N_1  and  S_13
REMARK    2  A    between atoms: O_8  and  O_10
REMARK    3  A    between atoms: S_13  and  N_15
REMARK                            x       y       z     vdW  Elec       q    Type
REMARK                         _______ _______ _______ _____ _____    ______ ____
ROOT
ATOM      1  N   UNL     1     -13.580 -43.749  28.932  0.00  0.00    -0.184 N 
ATOM      2  C   UNL     1     -12.574 -44.501  28.465  0.00  0.00    +0.180 C 
ATOM      3  N   UNL     1     -12.643 -44.587  27.119  0.00  0.00    -0.225 NA
ATOM      4  C   UNL     1     -13.728 -43.865  26.730  0.00  0.00    +0.097 C 
ATOM      5  C   UNL     1     -14.306 -43.346  27.878  0.00  0.00    +0.084 C 
ATOM      6  C   UNL     1     -15.447 -42.560  27.732  0.00  0.00    +0.017 C 
ATOM      7  C   UNL     1     -16.010 -42.288  26.506  0.00  0.00    +0.001 C 
ATOM      8  C   UNL     1     -15.400 -42.829  25.394  0.00  0.00    +0.002 C 
ATOM      9  C   UNL     1     -14.270 -43.612  25.481  0.00  0.00    +0.020 C 
ENDROOT
BRANCH   1  10
ATOM     10  S   UNL     1     -13.926 -43.342  30.572  0.00  0.00    +0.199 S 
ATOM     11  O   UNL     1     -14.672 -44.468  31.244  0.00  0.00    -0.219 OA
BRANCH  10  12
ATOM     12  N   UNL     1     -12.475 -42.928  31.476  0.00  0.00    -0.187 NA
ATOM     13  C   UNL     1     -11.782 -41.958  30.734  0.00  0.00    +0.087 C 
ATOM     14  C   UNL     1     -10.325 -42.179  30.504  0.00  0.00    +0.018 C 
ATOM     15  C   UNL     1      -9.746 -42.639  31.848  0.00  0.00    +0.003 C 
ATOM     16  C   UNL     1     -10.317 -44.022  32.013  0.00  0.00    +0.018 C 
ATOM     17  C   UNL     1     -11.781 -44.113  31.848  0.00  0.00    +0.087 C 
ENDBRANCH  10  12
ENDBRANCH   1  10
TORSDOF 2
REMARK  Name = =
REMARK  3 active torsions:
REMARK  status: ('A' for Active; 'I' for Inactive)
REMARK    1  A    between atoms: N_1  and  S_13
REMARK    2  A    between atoms: O_8  and  O_10
REMARK    3  A    between atoms: S_13  and  N_15
REMARK                            x       y       z     vdW  Elec       q    Type
REMARK                         _______ _______ _______ _____ _____    ______ ____
ROOT
ATOM      1  P   UNL     1     -13.126 -42.241  32.990  0.00  0.00    +0.000 P 
ENDROOT
TORSDOF 0
REMARK  Name = =
REMARK  3 active torsions:
REMARK  status: ('A' for Active; 'I' for Inactive)
REMARK    1  A    between atoms: N_1  and  S_13
REMARK    2  A    between atoms: O_8  and  O_10
REMARK    3  A    between atoms: S_13  and  N_15
REMARK                            x       y       z     vdW  Elec       q    Type
REMARK                         _______ _______ _______ _____ _____    ______ ____
ROOT
ATOM      1  O   UNL     1     -12.791 -41.000  33.797  0.00  0.00    -0.253 OA
ATOM      2  H   UNL     1     -13.556 -40.530  34.165  0.00  0.00    +0.253 HD
ENDROOT
BRANCH   1   3
ATOM      3  O   UNL     1     -12.582 -42.234  34.531  0.00  0.00    -0.253 OA
ATOM      4  H   UNL     1     -11.817 -42.704  34.163  0.00  0.00    +0.253 HD
ENDBRANCH   1   3
TORSDOF 1
REMARK  Name = =
REMARK  3 active torsions:
REMARK  status: ('A' for Active; 'I' for Inactive)
REMARK    1  A    between atoms: N_1  and  S_13
REMARK    2  A    between atoms: O_8  and  O_10
REMARK    3  A    between atoms: S_13  and  N_15
REMARK                            x       y       z     vdW  Elec       q    Type
REMARK                         _______ _______ _______ _____ _____    ______ ____
ROOT
ATOM      1  O   HOH     1     -14.008 -43.687  33.293  0.00  0.00    -0.253 OA
ATOM      2  H   HOH     0     -13.038 -43.687  33.293  0.00  0.00    +0.253 HD
ENDROOT
TORSDOF 0
REMARK  Name = =
REMARK  3 active torsions:
REMARK  status: ('A' for Active; 'I' for Inactive)
REMARK    1  A    between atoms: N_1  and  S_13
REMARK    2  A    between atoms: O_8  and  O_10
REMARK    3  A    between atoms: S_13  and  N_15
REMARK                            x       y       z     vdW  Elec       q    Type
REMARK                         _______ _______ _______ _____ _____    ______ ____
ROOT
ATOM      1  C   UNL     1     -14.617 -41.424  32.603  0.00  0.00    +0.000 C 
ATOM      2  C   UNL     1     -15.469 -40.850  33.434  0.00  0.00    +0.000 C 
ENDROOT
TORSDOF 0
