MODEL 1
REMARK VINA RESULT:    -9.629      0.000      0.000
REMARK INTER + INTRA:         -12.960
REMARK INTER:                 -13.007
REMARK INTRA:                   0.047
REMARK UNBOUND:                 0.047
REMARK  Name = =
REMARK  6 active torsions:
REMARK  status: ('A' for Active; 'I' for Inactive)
REMARK    1  A    between atoms: C_1  and  O_9
REMARK    2  A    between atoms: C_3  and  O_16
REMARK    3  A    between atoms: C_4  and  C_7
REMARK    4  A    between atoms: O_9  and  C_15
REMARK    5  A    between atoms: O_16  and  N_17
REMARK    6  A    between atoms: C_18  and  C_20
REMARK                            x       y       z     vdW  Elec       q    Type
REMARK                         _______ _______ _______ _____ _____    ______ ____
ROOT
ATOM      1  C   UNL     1      52.945 155.185  26.232  0.00  0.00    +0.143 C 
ATOM      2  C   UNL     1      53.108 156.351  26.935  0.00  0.00    +0.077 C 
ATOM      3  C   UNL     1      52.446 156.562  28.152  0.00  0.00    +0.176 C 
ATOM      4  C   UNL     1      51.621 155.561  28.626  0.00  0.00    +0.079 C 
ATOM      5  C   UNL     1      51.438 154.384  27.942  0.00  0.00    +0.010 C 
ATOM      6  C   UNL     1      52.097 154.189  26.745  0.00  0.00    +0.037 C 
ENDROOT
BRANCH   4   7
ATOM      7  C   UNL     1      50.927 155.781  29.899  0.00  0.00    +0.237 C 
ATOM      8  O   UNL     1      49.775 156.236  29.936  0.00  0.00    -0.283 OA
ENDBRANCH   4   7
BRANCH   1   9
ATOM      9  O   UNL     1      53.549 154.908  25.041  0.00  0.00    -0.461 OA
BRANCH   9  15
ATOM     10  N   UNL     1      55.049 154.073  23.420  0.00  0.00    -0.260 NA
ATOM     11  C   UNL     1      54.266 152.931  22.986  0.00  0.00    +0.104 C 
ATOM     12  C   UNL     1      53.911 152.011  24.131  0.00  0.00    +0.160 C 
ATOM     13  O   UNL     1      54.904 151.987  25.078  0.00  0.00    -0.347 OA
ATOM     14  C   UNL     1      55.080 153.214  25.720  0.00  0.00    +0.203 C 
ATOM     15  C   UNL     1      54.827 154.387  24.830  0.00  0.00    +0.255 C 
ATOM     16  H   UNL     1      54.788 154.883  22.858  0.00  0.00    +0.127 HD
ENDBRANCH   9  15
ENDBRANCH   1   9
BRANCH   3  17
ATOM     17  O   UNL     1      52.597 157.722  28.865  0.00  0.00    -0.384 OA
BRANCH  17  18
ATOM     18  N   UNL     1      51.551 158.395  29.442  0.00  0.00    -0.144 N 
ATOM     19  C   UNL     1      51.692 159.629  30.106  0.00  0.00    +0.277 C 
ATOM     20  O   UNL     1      52.854 160.139  30.164  0.00  0.00    -0.267 OA
ATOM     21  H   UNL     1      50.653 157.993  29.390  0.00  0.00    +0.196 HD
BRANCH  19  22
ATOM     22  C   UNL     1      50.561 160.346  30.727  0.00  0.00    +0.056 C 
ATOM     23  C   UNL     1      49.297 160.366  30.207  0.00  0.00    +0.005 C 
ATOM     24  C   UNL     1      48.254 161.048  30.822  0.00  0.00    +0.000 C 
ATOM     25  C   UNL     1      48.464 161.735  31.996  0.00  0.00    +0.000 C 
ATOM     26  C   UNL     1      49.737 161.719  32.531  0.00  0.00    +0.000 C 
ATOM     27  C   UNL     1      50.778 161.038  31.911  0.00  0.00    +0.005 C 
ENDBRANCH  19  22
ENDBRANCH  17  18
ENDBRANCH   3  17
TORSDOF 6
ENDMDL
