REMARK  Name = =
REMARK  1 active torsions:
REMARK  status: ('A' for Active; 'I' for Inactive)
REMARK    1  A    between atoms: C_15  and  O_20
REMARK                            x       y       z     vdW  Elec       q    Type
REMARK                         _______ _______ _______ _____ _____    ______ ____
ROOT
ATOM      1  N   UNL     1      -3.903  -3.696  30.915  0.00  0.00    -0.270 NA
ATOM      2  C   UNL     1      -3.782  -4.116  29.539  0.00  0.00    +0.073 C 
ATOM      3  C   UNL     1      -3.188  -5.494  29.531  0.00  0.00    +0.024 C 
ATOM      4  C   UNL     1      -2.517  -5.591  30.886  0.00  0.00    +0.051 C 
ATOM      5  C   UNL     1      -3.105  -4.535  31.717  0.00  0.00    +0.067 C 
ATOM      6  C   UNL     1      -3.612  -4.878  33.054  0.00  0.00    +0.037 C 
ATOM      7  C   UNL     1      -4.235  -6.250  33.060  0.00  0.00    +0.007 C 
ATOM      8  C   UNL     1      -3.186  -7.244  32.663  0.00  0.00    +0.020 C 
ATOM      9  C   UNL     1      -2.503  -6.963  31.392  0.00  0.00    +0.074 C 
ATOM     10  N   UNL     1      -1.189  -7.501  31.258  0.00  0.00    -0.334 N 
ATOM     11  C   UNL     1      -0.310  -6.435  30.947  0.00  0.00    +0.044 C 
ATOM     12  C   UNL     1      -1.048  -5.293  30.722  0.00  0.00    -0.007 C 
ATOM     13  C   UNL     1      -0.379  -4.130  30.401  0.00  0.00    +0.000 C 
ATOM     14  C   UNL     1       0.993  -4.081  30.302  0.00  0.00    +0.036 C 
ATOM     15  C   UNL     1       1.720  -5.208  30.526  0.00  0.00    +0.135 C 
ATOM     16  C   UNL     1       1.082  -6.366  30.843  0.00  0.00    +0.051 C 
ATOM     17  C   UNL     1      -4.490  -3.835  33.587  0.00  0.00    -0.028 C 
ATOM     18  C   UNL     1      -5.266  -3.147  32.775  0.00  0.00    -0.013 C 
ATOM     19  C   UNL     1      -5.231  -3.448  31.338  0.00  0.00    +0.099 C 
ATOM     20  H   UNL     1      -0.937  -8.447  31.363  0.00  0.00    +0.147 HD
ENDROOT
BRANCH  15  21
ATOM     21  O   UNL     1       3.099  -5.180  30.430  0.00  0.00    -0.505 OA
ATOM     22  H   UNL     1       3.537  -4.381  30.211  0.00  0.00    +0.292 HD
ENDBRANCH  15  21
TORSDOF 1
