REMARK  Name = =
REMARK  2 active torsions:
REMARK  status: ('A' for Active; 'I' for Inactive)
REMARK    1  A    between atoms: C_2  and  S_20
REMARK    2  A    between atoms: C_15  and  O_21
REMARK                            x       y       z     vdW  Elec       q    Type
REMARK                         _______ _______ _______ _____ _____    ______ ____
ROOT
ATOM      1  N   UNL     1      -3.331  -4.129  30.748  0.00  0.00    -0.262 NA
ATOM      2  C   UNL     1      -2.337  -3.837  29.738  0.00  0.00    +0.103 C 
ATOM      3  C   UNL     1      -1.829  -5.228  29.415  0.00  0.00    +0.034 C 
ATOM      4  C   UNL     1      -1.666  -5.815  30.791  0.00  0.00    +0.052 C 
ATOM      5  C   UNL     1      -2.509  -4.925  31.676  0.00  0.00    +0.068 C 
ATOM      6  C   UNL     1      -3.489  -5.710  32.522  0.00  0.00    +0.037 C 
ATOM      7  C   UNL     1      -4.364  -6.487  31.535  0.00  0.00    +0.007 C 
ATOM      8  C   UNL     1      -3.502  -7.534  30.914  0.00  0.00    +0.020 C 
ATOM      9  C   UNL     1      -2.053  -7.246  30.887  0.00  0.00    +0.074 C 
ATOM     10  N   UNL     1      -1.329  -7.673  32.068  0.00  0.00    -0.334 N 
ATOM     11  C   UNL     1      -0.089  -6.955  32.008  0.00  0.00    +0.044 C 
ATOM     12  C   UNL     1      -0.250  -5.824  31.237  0.00  0.00    -0.007 C 
ATOM     13  C   UNL     1       0.838  -4.993  31.050  0.00  0.00    +0.000 C 
ATOM     14  C   UNL     1       2.082  -5.241  31.600  0.00  0.00    +0.036 C 
ATOM     15  C   UNL     1       2.242  -6.373  32.371  0.00  0.00    +0.135 C 
ATOM     16  C   UNL     1       1.162  -7.209  32.563  0.00  0.00    +0.051 C 
ATOM     17  C   UNL     1      -4.401  -4.696  33.154  0.00  0.00    -0.028 C 
ATOM     18  C   UNL     1      -4.524  -3.464  32.674  0.00  0.00    -0.013 C 
ATOM     19  C   UNL     1      -3.773  -2.979  31.474  0.00  0.00    +0.099 C 
ATOM     20  H   UNL     1      -1.623  -8.312  32.757  0.00  0.00    +0.147 HD
ENDROOT
BRANCH   2  21
ATOM     21  S   UNL     1      -3.022  -3.005  28.302  0.00  0.00    -0.153 S 
ATOM     22  H   UNL     1      -3.457  -1.767  28.660  0.00  0.00    +0.104 HD
ENDBRANCH   2  21
BRANCH  15  23
ATOM     23  O   UNL     1       3.447  -6.689  32.952  0.00  0.00    -0.505 OA
ATOM     24  H   UNL     1       4.188  -6.129  32.829  0.00  0.00    +0.292 HD
ENDBRANCH  15  23
TORSDOF 2
