REMARK  Name = =
REMARK  5 active torsions:
REMARK  status: ('A' for Active; 'I' for Inactive)
REMARK    1  A    between atoms: C_2  and  S_20
REMARK    2  A    between atoms: C_3  and  N_21
REMARK    3  A    between atoms: C_15  and  O_26
REMARK    4  A    between atoms: N_21  and  S_22
REMARK    5  A    between atoms: S_22  and  N_25
REMARK                            x       y       z     vdW  Elec       q    Type
REMARK                         _______ _______ _______ _____ _____    ______ ____
ROOT
ATOM      1  N   UNL     1      -1.965  -4.618  29.352  0.00  0.00    -0.261 NA
ATOM      2  C   UNL     1      -0.593  -4.272  29.036  0.00  0.00    +0.119 C 
ATOM      3  C   UNL     1       0.148  -5.535  29.423  0.00  0.00    +0.108 C 
ATOM      4  C   UNL     1      -0.751  -6.219  30.451  0.00  0.00    +0.067 C 
ATOM      5  C   UNL     1      -1.796  -5.191  30.692  0.00  0.00    +0.069 C 
ATOM      6  C   UNL     1      -3.074  -5.693  31.250  0.00  0.00    +0.037 C 
ATOM      7  C   UNL     1      -3.546  -7.001  30.703  0.00  0.00    +0.007 C 
ATOM      8  C   UNL     1      -2.716  -7.482  29.534  0.00  0.00    +0.020 C 
ATOM      9  C   UNL     1      -1.243  -7.508  29.875  0.00  0.00    +0.075 C 
ATOM     10  N   UNL     1      -1.041  -8.503  30.893  0.00  0.00    -0.334 N 
ATOM     11  C   UNL     1      -0.202  -7.950  31.879  0.00  0.00    +0.044 C 
ATOM     12  C   UNL     1      -0.002  -6.604  31.659  0.00  0.00    -0.005 C 
ATOM     13  C   UNL     1       0.793  -5.890  32.519  0.00  0.00    +0.000 C 
ATOM     14  C   UNL     1       1.401  -6.491  33.610  0.00  0.00    +0.036 C 
ATOM     15  C   UNL     1       1.209  -7.824  33.835  0.00  0.00    +0.135 C 
ATOM     16  C   UNL     1       0.417  -8.539  32.977  0.00  0.00    +0.051 C 
ATOM     17  C   UNL     1      -4.109  -4.648  31.139  0.00  0.00    -0.028 C 
ATOM     18  C   UNL     1      -4.001  -3.659  30.281  0.00  0.00    -0.013 C 
ATOM     19  C   UNL     1      -2.849  -3.508  29.362  0.00  0.00    +0.099 C 
ATOM     20  H   UNL     1      -1.422  -9.411  30.899  0.00  0.00    +0.147 HD
ENDROOT
BRANCH   2  21
ATOM     21  S   UNL     1      -0.375  -3.875  27.282  0.00  0.00    -0.151 S 
ATOM     22  H   UNL     1      -1.058  -2.736  26.987  0.00  0.00    +0.104 HD
ENDBRANCH   2  21
BRANCH   3  23
ATOM     23  N   UNL     1       0.337  -6.396  28.266  0.00  0.00    -0.168 NA
ATOM     24  H   UNL     1      -0.121  -5.980  27.455  0.00  0.00    +0.150 HD
BRANCH  23  25
ATOM     25  S   UNL     1       2.004  -6.572  27.947  0.00  0.00    +0.093 S 
ATOM     26  O   UNL     1       2.769  -5.337  28.333  0.00  0.00    -0.142 OA
ATOM     27  O   UNL     1       2.185  -6.733  26.447  0.00  0.00    -0.142 OA
BRANCH  25  28
ATOM     28  N   UNL     1       2.698  -7.912  28.748  0.00  0.00    -0.193 NA
ATOM     29  H   UNL     1       2.578  -7.806  29.755  0.00  0.00    +0.145 HD
ATOM     30  H   UNL     1       3.693  -7.962  28.528  0.00  0.00    +0.145 HD
ENDBRANCH  25  28
ENDBRANCH  23  25
ENDBRANCH   3  23
BRANCH  15  31
ATOM     31  O   UNL     1       1.821  -8.436  34.935  0.00  0.00    -0.505 OA
ATOM     32  H   UNL     1       2.360  -7.931  35.512  0.00  0.00    +0.292 HD
ENDBRANCH  15  31
TORSDOF 5
