REMARK  Name = =
REMARK  13 active torsions:
REMARK  status: ('A' for Active; 'I' for Inactive)
REMARK    1  A    between atoms: C_2  and  S_26
REMARK    2  A    between atoms: C_3  and  N_20
REMARK    3  A    between atoms: C_15  and  O_25
REMARK    4  A    between atoms: N_20  and  S_21
REMARK    5  A    between atoms: S_21  and  N_24
REMARK    6  A    between atoms: S_26  and  S_27
REMARK    7  A    between atoms: S_27  and  S_28
REMARK    8  A    between atoms: S_27  and  S_33
REMARK    9  A    between atoms: S_28  and  S_29
REMARK   10  A    between atoms: S_29  and  C_30
REMARK   11  A    between atoms: C_30  and  O_32
REMARK   12  A    between atoms: S_33  and  C_34
REMARK   13  A    between atoms: C_34  and  O_36
REMARK                            x       y       z     vdW  Elec       q    Type
REMARK                         _______ _______ _______ _____ _____    ______ ____
ROOT
ATOM      1  N   UNL     1       1.236  -5.768  30.594  0.00  0.00    -0.260 NA
ATOM      2  C   UNL     1       0.073  -4.945  30.952  0.00  0.00    +0.133 C 
ATOM      3  C   UNL     1      -1.102  -5.864  30.983  0.00  0.00    +0.109 C 
ATOM      4  C   UNL     1      -0.498  -7.235  30.851  0.00  0.00    +0.067 C 
ATOM      5  C   UNL     1       0.948  -6.996  31.277  0.00  0.00    +0.069 C 
ATOM      6  C   UNL     1       0.899  -6.706  32.764  0.00  0.00    +0.037 C 
ATOM      7  C   UNL     1       0.567  -7.983  33.458  0.00  0.00    +0.007 C 
ATOM      8  C   UNL     1      -0.855  -8.343  33.097  0.00  0.00    +0.020 C 
ATOM      9  C   UNL     1      -1.173  -8.277  31.650  0.00  0.00    +0.075 C 
ATOM     10  N   UNL     1      -0.871  -9.480  30.905  0.00  0.00    -0.334 N 
ATOM     11  C   UNL     1      -0.672  -9.107  29.547  0.00  0.00    +0.044 C 
ATOM     12  C   UNL     1      -0.450  -7.753  29.481  0.00  0.00    -0.005 C 
ATOM     13  C   UNL     1      -0.239  -7.195  28.241  0.00  0.00    +0.000 C 
ATOM     14  C   UNL     1      -0.247  -7.955  27.108  0.00  0.00    +0.036 C 
ATOM     15  C   UNL     1      -0.470  -9.311  27.199  0.00  0.00    +0.135 C 
ATOM     16  C   UNL     1      -0.685  -9.911  28.416  0.00  0.00    +0.051 C 
ATOM     17  C   UNL     1       2.099  -6.023  33.229  0.00  0.00    -0.028 C 
ATOM     18  C   UNL     1       2.826  -5.310  32.390  0.00  0.00    -0.013 C 
ATOM     19  C   UNL     1       2.474  -5.168  30.963  0.00  0.00    +0.099 C 
ATOM     20  H   UNL     1      -0.814 -10.392  31.272  0.00  0.00    +0.147 HD
ENDROOT
BRANCH   3  21
ATOM     21  N   UNL     1      -2.122  -5.576  30.021  0.00  0.00    -0.168 NA
ATOM     22  H   UNL     1      -2.149  -6.329  29.334  0.00  0.00    +0.150 HD
BRANCH  21  23
ATOM     23  S   UNL     1      -3.701  -5.431  30.761  0.00  0.00    +0.093 S 
ATOM     24  O   UNL     1      -3.588  -4.737  32.098  0.00  0.00    -0.142 OA
ATOM     25  O   UNL     1      -4.580  -4.623  29.849  0.00  0.00    -0.142 OA
BRANCH  23  26
ATOM     26  N   UNL     1      -4.430  -6.993  30.932  0.00  0.00    -0.193 NA
ATOM     27  H   UNL     1      -3.857  -7.570  31.548  0.00  0.00    +0.145 HD
ATOM     28  H   UNL     1      -4.500  -7.438  30.017  0.00  0.00    +0.145 HD
ENDBRANCH  23  26
ENDBRANCH  21  23
ENDBRANCH   3  21
BRANCH  15  29
ATOM     29  O   UNL     1      -0.478 -10.101  26.028  0.00  0.00    -0.505 OA
ATOM     30  H   UNL     1      -0.332  -9.702  25.193  0.00  0.00    +0.292 HD
ENDBRANCH  15  29
BRANCH   2  31
ATOM     31  S   UNL     1      -0.005  -3.553  29.941  0.00  0.00    -0.067 S 
BRANCH  31  32
ATOM     32  S   UNL     1      -1.217  -3.375  28.760  0.00  0.00    -0.085 S 
ATOM     33  H   UNL     1      -2.246  -4.181  28.385  0.00  0.00    +0.116 HD
BRANCH  32  34
ATOM     34  S   UNL     1      -0.212  -3.408  27.415  0.00  0.00    -0.018 S 
BRANCH  34  35
ATOM     35  S   UNL     1       1.272  -2.112  27.112  0.00  0.00    -0.001 S 
BRANCH  35  36
ATOM     36  C   UNL     1       2.875  -2.894  27.196  0.00  0.00    +0.209 C 
ATOM     37  S   UNL     1       4.236  -2.076  26.826  0.00  0.00    -0.003 S 
BRANCH  36  38
ATOM     38  O   UNL     1       3.006  -4.220  27.577  0.00  0.00    -0.495 OA
ATOM     39  H   UNL     1       2.246  -4.722  27.797  0.00  0.00    +0.293 HD
ENDBRANCH  36  38
ENDBRANCH  35  36
ENDBRANCH  34  35
ENDBRANCH  32  34
BRANCH  32  40
ATOM     40  S   UNL     1      -2.010  -2.080  29.444  0.00  0.00    -0.014 S 
BRANCH  40  41
ATOM     41  C   UNL     1      -2.436  -0.688  28.591  0.00  0.00    +0.208 C 
ATOM     42  S   UNL     1      -3.282   0.542  29.319  0.00  0.00    -0.003 S 
BRANCH  41  43
ATOM     43  O   UNL     1      -2.130  -0.458  27.259  0.00  0.00    -0.495 OA
ATOM     44  H   UNL     1      -2.399   0.340  26.848  0.00  0.00    +0.293 HD
ENDBRANCH  41  43
ENDBRANCH  40  41
ENDBRANCH  32  40
ENDBRANCH  31  32
ENDBRANCH   2  31
TORSDOF 13
