REMARK  Name = =
REMARK  2 active torsions:
REMARK  status: ('A' for Active; 'I' for Inactive)
REMARK    1  A    between atoms: C_1  and  C_3
REMARK    2  A    between atoms: C_1  and  O_5
REMARK                            x       y       z     vdW  Elec       q    Type
REMARK                         _______ _______ _______ _____ _____    ______ ____
ROOT
ATOM      1  C   UNL     1      52.615 156.400  27.984  0.00  0.00    +0.381 C 
ATOM      2  O   UNL     1      53.134 157.255  28.748  0.00  0.00    -0.241 OA
ENDROOT
BRANCH   1   3
ATOM      3  C   UNL     1      51.731 155.398  28.555  0.00  0.00    +0.315 C 
ATOM      4  O   UNL     1      51.292 154.436  27.872  0.00  0.00    -0.276 OA
ENDBRANCH   1   3
BRANCH   1   5
ATOM      5  O   UNL     1      52.926 156.478  26.648  0.00  0.00    -0.475 OA
ATOM      6  H   UNL     1      52.561 155.861  26.045  0.00  0.00    +0.296 HD
ENDBRANCH   1   5
TORSDOF 2
