REMARK  Name = =
REMARK  3 active torsions:
REMARK  status: ('A' for Active; 'I' for Inactive)
REMARK    1  A    between atoms: C_1  and  C_18
REMARK    2  A    between atoms: C_18  and  C_20
REMARK    3  A    between atoms: C_20  and  O_22
REMARK                            x       y       z     vdW  Elec       q    Type
REMARK                         _______ _______ _______ _____ _____    ______ ____
ROOT
ATOM      1  C   UNL     1      52.347 156.537  26.579  0.00  0.00    +0.073 C 
ATOM      2  C   UNL     1      52.522 155.155  27.186  0.00  0.00    +0.009 C 
ATOM      3  C   UNL     1      52.416 154.065  26.111  0.00  0.00    +0.004 C 
ATOM      4  C   UNL     1      53.430 154.239  25.040  0.00  0.00    +0.018 C 
ATOM      5  C   UNL     1      54.279 153.107  24.717  0.00  0.00    +0.004 C 
ATOM      6  C   UNL     1      55.711 153.278  24.552  0.00  0.00    +0.005 C 
ATOM      7  C   UNL     1      56.447 151.996  24.645  0.00  0.00    +0.000 C 
ATOM      8  C   UNL     1      56.052 151.093  25.746  0.00  0.00    +0.000 C 
ATOM      9  C   UNL     1      56.973 151.374  26.887  0.00  0.00    +0.000 C 
ATOM     10  C   UNL     1      58.295 151.644  26.172  0.00  0.00    +0.000 C 
ATOM     11  C   UNL     1      57.932 152.125  24.797  0.00  0.00    +0.000 C 
ATOM     12  C   UNL     1      54.610 151.070  26.089  0.00  0.00    +0.000 C 
ATOM     13  C   UNL     1      53.783 151.750  25.001  0.00  0.00    +0.000 C 
ATOM     14  C   UNL     1      56.366 154.457  25.130  0.00  0.00    +0.025 C 
ATOM     15  C   UNL     1      55.431 155.599  25.277  0.00  0.00    -0.035 C 
ATOM     16  C   UNL     1      54.129 155.516  25.239  0.00  0.00    -0.048 C 
ATOM     17  C   UNL     1      53.264 156.742  25.402  0.00  0.00    +0.030 C 
ENDROOT
BRANCH   1  18
ATOM     18  C   UNL     1      52.639 157.536  27.607  0.00  0.00    +0.248 C 
ATOM     19  O   UNL     1      53.547 158.400  27.406  0.00  0.00    -0.284 OA
BRANCH  18  20
ATOM     20  C   UNL     1      51.943 157.615  28.884  0.00  0.00    +0.373 C 
ATOM     21  O   UNL     1      51.084 156.741  29.152  0.00  0.00    -0.242 OA
BRANCH  20  22
ATOM     22  O   UNL     1      52.182 158.608  29.817  0.00  0.00    -0.475 OA
ATOM     23  H   UNL     1      52.819 159.273  29.641  0.00  0.00    +0.295 HD
ENDBRANCH  20  22
ENDBRANCH  18  20
ENDBRANCH   1  18
TORSDOF 3
