REMARK  Name = =
REMARK  6 active torsions:
REMARK  status: ('A' for Active; 'I' for Inactive)
REMARK    1  A    between atoms: C_1  and  C_19
REMARK    2  A    between atoms: C_1  and  C_20
REMARK    3  A    between atoms: C_13  and  S_25
REMARK    4  A    between atoms: C_20  and  C_22
REMARK    5  A    between atoms: C_22  and  O_24
REMARK    6  A    between atoms: S_25  and  C_26
REMARK                            x       y       z     vdW  Elec       q    Type
REMARK                         _______ _______ _______ _____ _____    ______ ____
ROOT
ATOM      1  C   UNL     1      52.180 155.026  27.992  0.00  0.00    +0.091 C 
ATOM      2  C   UNL     1      50.772 155.503  28.049  0.00  0.00    +0.013 C 
ATOM      3  C   UNL     1      50.634 156.995  28.132  0.00  0.00    +0.005 C 
ATOM      4  C   UNL     1      51.252 157.453  29.460  0.00  0.00    +0.019 C 
ATOM      5  C   UNL     1      51.036 158.892  29.581  0.00  0.00    +0.014 C 
ATOM      6  C   UNL     1      52.161 159.781  29.691  0.00  0.00    +0.005 C 
ATOM      7  C   UNL     1      51.882 161.204  29.839  0.00  0.00    +0.000 C 
ATOM      8  C   UNL     1      50.631 161.584  30.514  0.00  0.00    +0.001 C 
ATOM      9  C   UNL     1      50.919 162.148  31.856  0.00  0.00    +0.000 C 
ATOM     10  C   UNL     1      52.313 162.706  31.698  0.00  0.00    +0.000 C 
ATOM     11  C   UNL     1      52.932 162.029  30.507  0.00  0.00    +0.000 C 
ATOM     12  C   UNL     1      49.470 160.694  30.403  0.00  0.00    +0.011 C 
ATOM     13  C   UNL     1      49.682 159.293  29.988  0.00  0.00    +0.056 C 
ATOM     14  C   UNL     1      53.447 159.259  30.181  0.00  0.00    +0.025 C 
ATOM     15  C   UNL     1      53.618 157.842  29.770  0.00  0.00    -0.035 C 
ATOM     16  C   UNL     1      52.661 157.009  29.442  0.00  0.00    -0.048 C 
ATOM     17  C   UNL     1      53.062 155.628  29.063  0.00  0.00    +0.034 C 
ENDROOT
BRANCH   1  19
ATOM     18  S   UNL     1      51.373 152.993  29.225  0.00  0.00    -0.055 S 
ATOM     19  C   UNL     1      52.199 153.561  28.217  0.00  0.00    +0.023 C 
ENDBRANCH   1  19
BRANCH   1  20
ATOM     20  C   UNL     1      52.754 155.298  26.657  0.00  0.00    +0.251 C 
ATOM     21  O   UNL     1      53.234 156.449  26.436  0.00  0.00    -0.284 OA
BRANCH  20  22
ATOM     22  C   UNL     1      52.812 154.338  25.568  0.00  0.00    +0.374 C 
ATOM     23  O   UNL     1      52.247 153.230  25.716  0.00  0.00    -0.242 OA
BRANCH  22  24
ATOM     24  O   UNL     1      53.453 154.580  24.378  0.00  0.00    -0.475 OA
ATOM     25  H   UNL     1      53.885 155.399  24.237  0.00  0.00    +0.295 HD
ENDBRANCH  22  24
ENDBRANCH  20  22
ENDBRANCH   1  20
BRANCH  13  26
ATOM     26  S   UNL     1      48.962 158.138  31.229  0.00  0.00    -0.058 S 
BRANCH  26  27
ATOM     27  C   UNL     1      48.016 159.096  32.404  0.00  0.00    +0.270 C 
ATOM     28  O   UNL     1      46.759 159.131  32.353  0.00  0.00    -0.263 OA
ATOM     29  N   UNL     1      48.645 159.842  33.423  0.00  0.00    -0.320 N 
ATOM     30  H   UNL     1      49.627 159.842  33.499  0.00  0.00    +0.146 HD
ATOM     31  H   UNL     1      48.102 160.362  34.059  0.00  0.00    +0.146 HD
ENDBRANCH  26  27
ENDBRANCH  13  26
TORSDOF 6
