REMARK  Name = =
REMARK  8 active torsions:
REMARK  status: ('A' for Active; 'I' for Inactive)
REMARK    1  A    between atoms: C_1  and  C_19
REMARK    2  A    between atoms: C_1  and  C_28
REMARK    3  A    between atoms: C_13  and  S_33
REMARK    4  A    between atoms: S_18  and  C_19
REMARK    5  A    between atoms: S_18  and  C_26
REMARK    6  A    between atoms: C_28  and  C_30
REMARK    7  A    between atoms: C_30  and  O_32
REMARK    8  A    between atoms: S_33  and  C_34
REMARK                            x       y       z     vdW  Elec       q    Type
REMARK                         _______ _______ _______ _____ _____    ______ ____
ROOT
ATOM      1  C   UNL     1      59.637 164.703  40.300  0.00  0.00    +0.075 C 
ATOM      2  C   UNL     1      60.919 165.508  40.381  0.00  0.00    +0.009 C 
ATOM      3  C   UNL     1      62.149 164.687  40.196  0.00  0.00    +0.005 C 
ATOM      4  C   UNL     1      61.960 163.226  40.438  0.00  0.00    +0.019 C 
ATOM      5  C   UNL     1      63.278 162.562  40.635  0.00  0.00    +0.015 C 
ATOM      6  C   UNL     1      63.142 161.168  41.151  0.00  0.00    +0.006 C 
ATOM      7  C   UNL     1      64.524 160.670  41.516  0.00  0.00    +0.009 C 
ATOM      8  C   UNL     1      65.355 160.674  40.280  0.00  0.00    +0.023 C 
ATOM      9  C   UNL     1      66.616 161.418  40.550  0.00  0.00    -0.031 C 
ATOM     10  C   UNL     1      66.511 161.998  41.940  0.00  0.00    -0.031 C 
ATOM     11  C   UNL     1      65.209 161.564  42.523  0.00  0.00    +0.026 C 
ATOM     12  C   UNL     1      64.598 161.126  39.079  0.00  0.00    +0.016 C 
ATOM     13  C   UNL     1      63.934 162.483  39.246  0.00  0.00    +0.057 C 
ATOM     14  C   UNL     1      62.288 161.102  42.406  0.00  0.00    +0.025 C 
ATOM     15  C   UNL     1      61.065 161.911  42.264  0.00  0.00    -0.035 C 
ATOM     16  C   UNL     1      60.904 162.872  41.380  0.00  0.00    -0.048 C 
ATOM     17  C   UNL     1      59.616 163.612  41.335  0.00  0.00    +0.030 C 
ENDROOT
BRANCH   1  18
ATOM     18  C   UNL     1      59.519 164.121  38.935  0.00  0.00    +0.248 C 
ATOM     19  O   UNL     1      59.001 162.991  38.773  0.00  0.00    -0.284 OA
BRANCH  18  20
ATOM     20  C   UNL     1      60.005 164.866  37.786  0.00  0.00    +0.373 C 
ATOM     21  O   UNL     1      59.563 166.016  37.499  0.00  0.00    -0.242 OA
BRANCH  20  22
ATOM     22  O   UNL     1      60.982 164.295  36.988  0.00  0.00    -0.475 OA
ATOM     23  H   UNL     1      61.316 163.444  37.193  0.00  0.00    +0.295 HD
ENDBRANCH  20  22
ENDBRANCH  18  20
ENDBRANCH   1  18
BRANCH   1  24
ATOM     24  C   UNL     1      58.517 165.659  40.497  0.00  0.00    +0.060 C 
BRANCH  24  25
ATOM     25  S   UNL     1      57.127 165.157  41.105  0.00  0.00    -0.129 S 
ATOM     26  H   UNL     1      56.604 164.197  40.296  0.00  0.00    +0.101 HD
BRANCH  25  33
ATOM     27  N   UNL     1      54.717 166.475  40.609  0.00  0.00    -0.272 N 
ATOM     28  C   UNL     1      54.298 165.344  39.856  0.00  0.00    +0.094 C 
ATOM     29  C   UNL     1      52.906 164.878  40.125  0.00  0.00    +0.022 C 
ATOM     30  C   UNL     1      51.941 165.995  40.415  0.00  0.00    +0.004 C 
ATOM     31  C   UNL     1      52.518 167.071  41.281  0.00  0.00    +0.022 C 
ATOM     32  C   UNL     1      53.829 167.601  40.740  0.00  0.00    +0.094 C 
ATOM     33  C   UNL     1      55.981 166.510  41.226  0.00  0.00    +0.264 C 
ATOM     34  O   UNL     1      56.319 167.524  41.884  0.00  0.00    -0.264 OA
ENDBRANCH  25  33
ENDBRANCH  24  25
ENDBRANCH   1  24
BRANCH  13  35
ATOM     35  S   UNL     1      65.107 163.848  39.031  0.00  0.00    -0.058 S 
BRANCH  35  36
ATOM     36  C   UNL     1      65.439 164.559  40.629  0.00  0.00    +0.270 C 
ATOM     37  O   UNL     1      66.639 164.786  40.962  0.00  0.00    -0.263 OA
ATOM     38  N   UNL     1      64.405 164.880  41.540  0.00  0.00    -0.320 N 
ATOM     39  H   UNL     1      63.466 164.710  41.298  0.00  0.00    +0.146 HD
ATOM     40  H   UNL     1      64.625 165.273  42.416  0.00  0.00    +0.146 HD
ENDBRANCH  35  36
ENDBRANCH  13  35
TORSDOF 8
