REMARK  Name = =
REMARK  5 active torsions:
REMARK  status: ('A' for Active; 'I' for Inactive)
REMARK    1  A    between atoms: S_1  and  N_9
REMARK    2  A    between atoms: C_2  and  N_15
REMARK    3  A    between atoms: C_17  and  O_21
REMARK    4  A    between atoms: O_21  and  C_22
REMARK    5  A    between atoms: C_25  and  C_28
REMARK                            x       y       z     vdW  Elec       q    Type
REMARK                         _______ _______ _______ _____ _____    ______ ____
ROOT
ATOM      1  S   UNL     1     -15.883 -41.930  25.109  0.00  0.00    -0.012 S 
ATOM      2  C   UNL     1     -17.292 -42.758  24.511  0.00  0.00    +0.247 C 
ATOM      3  C   UNL     1     -16.917 -42.888  23.065  0.00  0.00    +0.263 C 
ATOM      4  O   UNL     1     -17.159 -43.966  22.425  0.00  0.00    -0.272 OA
ATOM      5  N   UNL     1     -16.312 -41.709  22.620  0.00  0.00    -0.244 N 
ATOM      6  C   UNL     1     -15.425 -41.121  23.533  0.00  0.00    +0.285 C 
ATOM      7  O   UNL     1     -14.556 -40.281  23.342  0.00  0.00    -0.262 OA
ATOM      8  H   UNL     1     -16.495 -41.321  21.734  0.00  0.00    +0.158 HD
ENDROOT
BRANCH   1   9
ATOM      9  N   UNL     1     -15.382 -41.442  26.458  0.00  0.00    -0.225 NA
ATOM     10  C   UNL     1     -15.723 -42.258  27.596  0.00  0.00    +0.100 C 
ATOM     11  C   UNL     1     -15.025 -43.582  27.509  0.00  0.00    +0.087 C 
ATOM     12  N   UNL     1     -13.684 -43.560  27.116  0.00  0.00    -0.295 NA
ATOM     13  C   UNL     1     -13.117 -42.381  26.627  0.00  0.00    +0.087 C 
ATOM     14  C   UNL     1     -13.965 -41.171  26.551  0.00  0.00    +0.100 C 
ATOM     15  H   UNL     1     -13.581 -44.262  26.383  0.00  0.00    +0.123 HD
ENDBRANCH   1   9
BRANCH   2  16
ATOM     16  N   UNL     1     -18.391 -41.875  24.613  0.00  0.00    -0.162 N 
ATOM     17  N   UNL     1     -19.110 -41.386  23.616  0.00  0.00    -0.090 NA
ATOM     18  C   UNL     1     -20.084 -40.574  24.078  0.00  0.00    +0.422 A 
ATOM     19  O   UNL     1     -19.956 -40.568  25.384  0.00  0.00    -0.358 OA
ATOM     20  C   UNL     1     -18.948 -41.341  25.728  0.00  0.00    +0.442 A 
ATOM     21  O   UNL     1     -18.581 -41.535  26.906  0.00  0.00    -0.221 OA
BRANCH  18  22
ATOM     22  O   UNL     1     -21.038 -39.877  23.333  0.00  0.00    -0.408 OA
BRANCH  22  23
ATOM     23  C   UNL     1     -22.237 -40.461  22.944  0.00  0.00    +0.150 C 
ATOM     24  C   UNL     1     -22.578 -41.750  23.295  0.00  0.00    +0.038 C 
ATOM     25  C   UNL     1     -23.789 -42.298  22.885  0.00  0.00    +0.003 C 
ATOM     26  C   UNL     1     -24.664 -41.562  22.122  0.00  0.00    +0.000 C 
ATOM     27  C   UNL     1     -24.282 -40.276  21.792  0.00  0.00    +0.003 C 
ATOM     28  C   UNL     1     -23.094 -39.701  22.179  0.00  0.00    +0.038 C 
BRANCH  26  29
ATOM     29  C   UNL     1     -25.916 -42.137  21.699  0.00  0.00    +0.000 C 
ATOM     30  C   UNL     1     -26.331 -43.345  21.989  0.00  0.00    +0.000 C 
ENDBRANCH  26  29
ENDBRANCH  22  23
ENDBRANCH  18  22
ENDBRANCH   2  16
TORSDOF 5
REMARK  Name = =
REMARK  5 active torsions:
REMARK  status: ('A' for Active; 'I' for Inactive)
REMARK    1  A    between atoms: S_1  and  N_9
REMARK    2  A    between atoms: C_2  and  N_15
REMARK    3  A    between atoms: C_17  and  O_21
REMARK    4  A    between atoms: O_21  and  C_22
REMARK    5  A    between atoms: C_25  and  C_28
REMARK                            x       y       z     vdW  Elec       q    Type
REMARK                         _______ _______ _______ _____ _____    ______ ____
ROOT
ATOM      1  H   UNK     1     -14.675 -43.476  24.777  0.00  0.00    +0.000 HD
ENDROOT
TORSDOF 0
