REMARK  Name = =
REMARK  3 active torsions:
REMARK  status: ('A' for Active; 'I' for Inactive)
REMARK    1  A    between atoms: O_2  and  O_11
REMARK    2  A    between atoms: P_14  and  O_16
REMARK    3  A    between atoms: P_14  and  O_17
REMARK                            x       y       z     vdW  Elec       q    Type
REMARK                         _______ _______ _______ _____ _____    ______ ____
ROOT
ATOM      1  P   UNL     1      -3.013  -5.040  30.960  0.00  0.00    +0.000 P 
ENDROOT
TORSDOF 0
REMARK  Name = =
REMARK  3 active torsions:
REMARK  status: ('A' for Active; 'I' for Inactive)
REMARK    1  A    between atoms: O_2  and  O_11
REMARK    2  A    between atoms: P_14  and  O_16
REMARK    3  A    between atoms: P_14  and  O_17
REMARK                            x       y       z     vdW  Elec       q    Type
REMARK                         _______ _______ _______ _____ _____    ______ ____
ROOT
ATOM      1  O   UNL     1      -3.447  -6.318  30.271  0.00  0.00    -0.253 OA
ATOM      2  H   UNL     1      -2.552  -5.958  30.372  0.00  0.00    +0.253 HD
ENDROOT
BRANCH   1   3
ATOM      3  O   UNL     1      -4.268  -5.976  31.493  0.00  0.00    -0.253 OA
ATOM      4  H   UNL     1      -5.163  -6.336  31.392  0.00  0.00    +0.253 HD
ENDBRANCH   1   3
TORSDOF 1
REMARK  Name = =
REMARK  3 active torsions:
REMARK  status: ('A' for Active; 'I' for Inactive)
REMARK    1  A    between atoms: O_2  and  O_11
REMARK    2  A    between atoms: P_14  and  O_16
REMARK    3  A    between atoms: P_14  and  O_17
REMARK                            x       y       z     vdW  Elec       q    Type
REMARK                         _______ _______ _______ _____ _____    ______ ____
ROOT
ATOM      1  N   UNL     1      -1.791  -5.991  31.741  0.00  0.00    -0.164 NA
ATOM      2  C   UNL     1      -0.667  -6.350  31.083  0.00  0.00    +0.071 C 
ATOM      3  C   UNL     1       0.326  -7.074  31.688  0.00  0.00    +0.102 C 
ATOM      4  C   UNL     1       0.154  -7.437  33.009  0.00  0.00    +0.101 C 
ATOM      5  N   UNL     1      -0.966  -7.058  33.602  0.00  0.00    -0.150 NA
ATOM      6  C   UNL     1      -1.956  -6.343  33.022  0.00  0.00    +0.348 C 
ATOM      7  O   UNL     1      -2.972  -6.053  33.716  0.00  0.00    -0.248 OA
ATOM      8  N   UNL     1       1.185  -8.179  33.611  0.00  0.00    -0.348 N 
ATOM      9  H   UNL     1       1.987  -8.418  33.092  0.00  0.00    +0.143 HD
ATOM     10  H   UNL     1       1.105  -8.460  34.551  0.00  0.00    +0.143 HD
ENDROOT
TORSDOF 0
REMARK  Name = =
REMARK  3 active torsions:
REMARK  status: ('A' for Active; 'I' for Inactive)
REMARK    1  A    between atoms: O_2  and  O_11
REMARK    2  A    between atoms: P_14  and  O_16
REMARK    3  A    between atoms: P_14  and  O_17
REMARK                            x       y       z     vdW  Elec       q    Type
REMARK                         _______ _______ _______ _____ _____    ______ ____
ROOT
ATOM      1  O   HOH     1      -2.742  -5.354  29.323  0.00  0.00    -0.253 OA
ATOM      2  H   HOH     0      -1.772  -5.354  29.323  0.00  0.00    +0.253 HD
ENDROOT
TORSDOF 0
REMARK  Name = =
REMARK  3 active torsions:
REMARK  status: ('A' for Active; 'I' for Inactive)
REMARK    1  A    between atoms: O_2  and  O_11
REMARK    2  A    between atoms: P_14  and  O_16
REMARK    3  A    between atoms: P_14  and  O_17
REMARK                            x       y       z     vdW  Elec       q    Type
REMARK                         _______ _______ _______ _____ _____    ______ ____
ROOT
ATOM      1  O   UNL     1      -3.196  -3.358  30.769  0.00  0.00    -0.225 OA
ATOM      2  P   UNL     1      -4.468  -2.782  31.725  0.00  0.00    +0.500 P 
ATOM      3  O   UNL     1      -5.821  -3.166  31.122  0.00  0.00    -0.116 OA
ENDROOT
BRANCH   2   4
ATOM      4  O   UNL     1      -4.367  -3.381  33.280  0.00  0.00    -0.301 OA
ATOM      5  H   UNL     1      -3.510  -3.139  33.665  0.00  0.00    +0.222 HD
ENDBRANCH   2   4
BRANCH   2   6
ATOM      6  O   UNL     1      -4.445  -1.087  31.773  0.00  0.00    -0.301 OA
ATOM      7  H   UNL     1      -3.603  -0.786  32.149  0.00  0.00    +0.222 HD
ENDBRANCH   2   6
TORSDOF 2
