REMARK  Name = =
REMARK  16 active torsions:
REMARK  status: ('A' for Active; 'I' for Inactive)
REMARK    1  A    between atoms: P_1  and  O_2
REMARK    2  A    between atoms: P_1  and  N_3
REMARK    3  A    between atoms: P_1  and  O_19
REMARK    4  A    between atoms: P_1  and  O_25
REMARK    5  A    between atoms: O_2  and  O_20
REMARK    6  A    between atoms: C_4  and  N_11
REMARK    7  A    between atoms: N_11  and  C_12
REMARK    8  A    between atoms: C_12  and  N_13
REMARK    9  A    between atoms: C_12  and  N_16
REMARK   10  A    between atoms: N_16  and  C_17
REMARK   11  A    between atoms: O_20  and  P_21
REMARK   12  A    between atoms: P_21  and  O_23
REMARK   13  A    between atoms: P_21  and  O_24
REMARK   14  A    between atoms: O_25  and  N_26
REMARK   15  A    between atoms: N_26  and  N_27
REMARK   16  A    between atoms: C_28  and  O_30
REMARK                            x       y       z     vdW  Elec       q    Type
REMARK                         _______ _______ _______ _____ _____    ______ ____
ROOT
ATOM      1  P   UNL     1      -3.632  -4.736  30.354  0.00  0.00    +0.278 P 
ATOM      2  H   UNL     1      -4.061  -5.067  31.623  0.00  0.00    +0.157 HD
ENDROOT
BRANCH   1   3
ATOM      3  N   UNL     1      -1.856  -4.584  30.007  0.00  0.00    -0.164 N 
ATOM      4  C   UNL     1      -1.023  -5.231  30.532  0.00  0.00    +0.136 C 
ATOM      5  C   UNL     1       0.321  -5.005  30.596  0.00  0.00    +0.063 C 
ATOM      6  C   UNL     1       0.726  -3.885  29.933  0.00  0.00    +0.121 C 
ATOM      7  N   UNL     1      -0.235  -3.231  29.366  0.00  0.00    -0.147 NA
ATOM      8  C   UNL     1      -1.518  -3.498  29.314  0.00  0.00    +0.340 C 
ATOM      9  O   UNL     1      -2.412  -2.869  28.648  0.00  0.00    -0.250 OA
ATOM     10  N   UNL     1       2.051  -3.440  29.781  0.00  0.00    -0.344 N 
ATOM     11  H   UNL     1       2.788  -3.933  30.210  0.00  0.00    +0.144 HD
ATOM     12  H   UNL     1       2.242  -2.636  29.246  0.00  0.00    +0.144 HD
BRANCH   4  13
ATOM     13  N   UNL     1      -1.308  -6.636  30.851  0.00  0.00    -0.189 NA
BRANCH  13  14
ATOM     14  C   UNL     1      -1.549  -7.595  30.989  0.00  0.00    +0.233 C 
BRANCH  14  15
ATOM     15  N   UNL     1      -1.847  -9.093  31.339  0.00  0.00    -0.269 N 
ATOM     16  C   UNL     1      -2.524  -9.283  29.885  0.00  0.00    +0.302 C 
ATOM     17  O   UNL     1      -2.405  -8.462  29.001  0.00  0.00    -0.265 OA
ATOM     18  H   UNL     1      -1.688  -9.674  32.118  0.00  0.00    +0.153 HD
ENDBRANCH  14  15
BRANCH  14  19
ATOM     19  N   UNL     1       0.008  -7.696  31.868  0.00  0.00    -0.237 NA
ATOM     20  H   UNL     1       0.639  -7.028  31.425  0.00  0.00    +0.129 HD
BRANCH  19  21
ATOM     21  C   UNL     1       0.061  -7.436  33.299  0.00  0.00    +0.258 C 
ATOM     22  O   UNL     1      -1.099  -6.600  33.213  0.00  0.00    -0.201 OA
ENDBRANCH  19  21
ENDBRANCH  14  19
ENDBRANCH  13  14
ENDBRANCH   4  13
ENDBRANCH   1   3
BRANCH   1  23
ATOM     23  O   UNL     1      -4.187  -6.206  29.686  0.00  0.00    -0.328 OA
ATOM     24  H   UNL     1      -3.992  -6.224  28.736  0.00  0.00    +0.220 HD
ENDBRANCH   1  23
BRANCH   1  25
ATOM     25  O   UNL     1      -4.034  -3.147  30.822  0.00  0.00    -0.206 OA
BRANCH  25  26
ATOM     26  N   UNL     1      -5.450  -2.988  30.647  0.00  0.00    -0.107 NA
ATOM     27  H   UNL     1      -5.965  -3.840  30.868  0.00  0.00    +0.178 HD
BRANCH  26  28
ATOM     28  N   UNL     1      -5.656  -1.955  31.630  0.00  0.00    -0.193 N 
ATOM     29  C   UNL     1      -6.888  -1.248  31.853  0.00  0.00    +0.413 C 
ATOM     30  O   UNL     1      -7.785  -1.481  30.977  0.00  0.00    -0.225 OA
ATOM     31  H   UNL     1      -4.888  -1.713  32.197  0.00  0.00    +0.175 HD
BRANCH  29  32
ATOM     32  O   UNL     1      -7.052  -0.497  32.863  0.00  0.00    -0.465 OA
ATOM     33  H   UNL     1      -6.350  -0.368  33.470  0.00  0.00    +0.297 HD
ENDBRANCH  29  32
ENDBRANCH  26  28
ENDBRANCH  25  26
ENDBRANCH   1  25
BRANCH   1  34
ATOM     34  O   UNL     1      -3.402  -5.983  31.255  0.00  0.00    -0.147 OA
BRANCH  34  35
ATOM     35  O   UNL     1      -3.658  -5.339  31.980  0.00  0.00    -0.118 OA
BRANCH  35  36
ATOM     36  P   UNL     1      -4.028  -4.417  33.226  0.00  0.00    +0.500 P 
ATOM     37  O   UNL     1      -5.464  -4.434  33.443  0.00  0.00    -0.225 OA
BRANCH  36  38
ATOM     38  O   UNL     1      -3.238  -5.116  34.537  0.00  0.00    -0.301 OA
ATOM     39  H   UNL     1      -3.593  -6.005  34.692  0.00  0.00    +0.222 HD
ENDBRANCH  36  38
BRANCH  36  40
ATOM     40  O   UNL     1      -3.297  -2.915  33.112  0.00  0.00    -0.301 OA
ATOM     41  H   UNL     1      -3.686  -2.421  32.374  0.00  0.00    +0.222 HD
ENDBRANCH  36  40
ENDBRANCH  35  36
ENDBRANCH  34  35
ENDBRANCH   1  34
TORSDOF 16
