MODEL 1
REMARK VINA RESULT:    -8.267      0.000      0.000
REMARK INTER + INTRA:         -12.150
REMARK INTER:                 -11.892
REMARK INTRA:                  -0.258
REMARK UNBOUND:                -0.258
REMARK  Name = =
REMARK  8 active torsions:
REMARK  status: ('A' for Active; 'I' for Inactive)
REMARK    1  A    between atoms: C_1  and  C_8
REMARK    2  A    between atoms: C_6  and  N_15
REMARK    3  A    between atoms: N_7  and  C_14
REMARK    4  A    between atoms: N_15  and  C_16
REMARK    5  A    between atoms: C_16  and  C_17
REMARK    6  A    between atoms: N_19  and  O_20
REMARK    7  A    between atoms: O_20  and  C_21
REMARK    8  A    between atoms: C_21  and  O_23
REMARK                            x       y       z     vdW  Elec       q    Type
REMARK                         _______ _______ _______ _____ _____    ______ ____
ROOT
ATOM      1  C   UNL     1      50.496 159.979  30.737  0.00  0.00    +0.086 C 
ATOM      2  C   UNL     1      49.121 160.015  30.556  0.00  0.00    +0.105 C 
ATOM      3  N   UNL     1      48.331 160.971  31.128  0.00  0.00    -0.242 NA
ATOM      4  C   UNL     1      48.833 161.930  31.896  0.00  0.00    +0.100 C 
ATOM      5  C   UNL     1      50.192 161.941  32.107  0.00  0.00    +0.035 C 
ATOM      6  C   UNL     1      51.021 160.964  31.525  0.00  0.00    +0.052 C 
ENDROOT
BRANCH   1   8
ATOM      7  N   UNL     1      50.787 157.594  29.944  0.00  0.00    -0.276 N 
ATOM      8  C   UNL     1      51.235 158.922  30.081  0.00  0.00    +0.252 C 
ATOM      9  O   UNL     1      52.361 159.155  29.580  0.00  0.00    -0.270 OA
ATOM     10  H   UNL     1      49.908 157.362  30.321  0.00  0.00    +0.155 HD
BRANCH   7  15
ATOM     11  C   UNL     1      51.391 155.203  29.508  0.00  0.00    +0.228 C 
ATOM     12  O   UNL     1      52.231 154.544  28.736  0.00  0.00    -0.349 OA
ATOM     13  N   UNL     1      52.901 155.385  28.040  0.00  0.00    -0.074 NA
ATOM     14  C   UNL     1      52.513 156.657  28.339  0.00  0.00    +0.158 C 
ATOM     15  C   UNL     1      51.528 156.560  29.294  0.00  0.00    +0.114 C 
ENDBRANCH   7  15
ENDBRANCH   1   8
BRANCH   6  16
ATOM     16  N   UNL     1      52.402 161.032  31.782  0.00  0.00    -0.325 N 
ATOM     17  H   UNL     1      52.829 160.400  32.405  0.00  0.00    +0.147 HD
BRANCH  16  18
ATOM     18  C   UNL     1      53.188 162.057  31.109  0.00  0.00    +0.177 C 
BRANCH  18  19
ATOM     19  C   UNL     1      54.617 161.964  31.276  0.00  0.00    +0.274 C 
ATOM     20  O   UNL     1      55.328 162.009  30.212  0.00  0.00    -0.270 OA
ATOM     21  N   UNL     1      55.279 161.827  32.510  0.00  0.00    -0.140 N 
ATOM     22  H   UNL     1      54.784 161.787  33.360  0.00  0.00    +0.196 HD
BRANCH  21  23
ATOM     23  O   UNL     1      56.679 161.751  32.469  0.00  0.00    -0.314 OA
BRANCH  23  24
ATOM     24  C   UNL     1      57.470 162.228  33.485  0.00  0.00    +0.531 C 
ATOM     25  O   UNL     1      58.272 161.440  34.038  0.00  0.00    -0.201 OA
BRANCH  24  26
ATOM     26  O   UNL     1      57.402 163.557  33.907  0.00  0.00    -0.448 OA
ATOM     27  H   UNL     1      56.934 164.187  33.395  0.00  0.00    +0.299 HD
ENDBRANCH  24  26
ENDBRANCH  23  24
ENDBRANCH  21  23
ENDBRANCH  18  19
ENDBRANCH  16  18
ENDBRANCH   6  16
TORSDOF 8
ENDMDL
