REMARK  Name = =
REMARK  8 active torsions:
REMARK  status: ('A' for Active; 'I' for Inactive)
REMARK    1  A    between atoms: C_1  and  C_8
REMARK    2  A    between atoms: C_6  and  N_15
REMARK    3  A    between atoms: N_7  and  C_14
REMARK    4  A    between atoms: N_15  and  C_16
REMARK    5  A    between atoms: C_16  and  C_17
REMARK    6  A    between atoms: N_19  and  O_20
REMARK    7  A    between atoms: O_20  and  C_21
REMARK    8  A    between atoms: C_21  and  O_23
REMARK                            x       y       z     vdW  Elec       q    Type
REMARK                         _______ _______ _______ _____ _____    ______ ____
ROOT
ATOM      1  C   UNL     1      53.590 164.410  41.130  0.00  0.00    +0.086 C 
ATOM      2  C   UNL     1      54.933 164.747  41.035  0.00  0.00    +0.105 C 
ATOM      3  N   UNL     1      55.352 165.991  40.660  0.00  0.00    -0.242 NA
ATOM      4  C   UNL     1      54.496 166.961  40.361  0.00  0.00    +0.100 C 
ATOM      5  C   UNL     1      53.152 166.680  40.440  0.00  0.00    +0.035 C 
ATOM      6  C   UNL     1      52.702 165.403  40.825  0.00  0.00    +0.052 C 
ENDROOT
BRANCH   1   8
ATOM      7  N   UNL     1      54.178 161.997  41.613  0.00  0.00    -0.276 N 
ATOM      8  C   UNL     1      53.260 163.063  41.540  0.00  0.00    +0.252 C 
ATOM      9  O   UNL     1      52.084 162.771  41.865  0.00  0.00    -0.270 OA
ATOM     10  H   UNL     1      55.114 162.177  41.368  0.00  0.00    +0.155 HD
BRANCH   7  15
ATOM     11  C   UNL     1      54.657 159.562  41.946  0.00  0.00    +0.228 C 
ATOM     12  O   UNL     1      54.019 158.507  42.410  0.00  0.00    -0.349 OA
ATOM     13  N   UNL     1      52.844 158.861  42.777  0.00  0.00    -0.074 NA
ATOM     14  C   UNL     1      52.666 160.195  42.561  0.00  0.00    +0.158 C 
ATOM     15  C   UNL     1      53.837 160.671  42.020  0.00  0.00    +0.114 C 
ENDBRANCH   7  15
ENDBRANCH   1   8
BRANCH   6  16
ATOM     16  N   UNL     1      51.315 165.183  40.884  0.00  0.00    -0.325 N 
ATOM     17  H   UNL     1      50.952 164.268  40.904  0.00  0.00    +0.147 HD
BRANCH  16  18
ATOM     18  C   UNL     1      50.425 166.336  40.915  0.00  0.00    +0.177 C 
BRANCH  18  19
ATOM     19  C   UNL     1      49.014 166.040  40.945  0.00  0.00    +0.274 C 
ATOM     20  O   UNL     1      48.254 166.904  41.507  0.00  0.00    -0.270 OA
ATOM     21  N   UNL     1      48.419 164.883  40.409  0.00  0.00    -0.140 N 
ATOM     22  H   UNL     1      48.954 164.185  39.966  0.00  0.00    +0.196 HD
BRANCH  21  23
ATOM     23  O   UNL     1      47.027 164.773  40.537  0.00  0.00    -0.314 OA
BRANCH  23  24
ATOM     24  C   UNL     1      46.430 164.303  41.680  0.00  0.00    +0.531 C 
ATOM     25  O   UNL     1      47.120 163.630  42.482  0.00  0.00    -0.201 OA
BRANCH  24  26
ATOM     26  O   UNL     1      45.088 164.557  41.966  0.00  0.00    -0.448 OA
ATOM     27  H   UNL     1      44.706 164.224  42.754  0.00  0.00    +0.299 HD
ENDBRANCH  24  26
ENDBRANCH  23  24
ENDBRANCH  21  23
ENDBRANCH  18  19
ENDBRANCH  16  18
ENDBRANCH   6  16
TORSDOF 8
