REMARK  Name = =
REMARK  7 active torsions:
REMARK  status: ('A' for Active; 'I' for Inactive)
REMARK    1  A    between atoms: C_1  and  S_17
REMARK    2  A    between atoms: C_1  and  O_21
REMARK    3  A    between atoms: C_3  and  C_8
REMARK    4  A    between atoms: N_10  and  C_11
REMARK    5  A    between atoms: S_17  and  N_20
REMARK    6  A    between atoms: O_21  and  C_22
REMARK    7  A    between atoms: C_22  and  C_24
REMARK                            x       y       z     vdW  Elec       q    Type
REMARK                         _______ _______ _______ _____ _____    ______ ____
ROOT
ATOM      1  C   UNL     1     -20.169 -41.716  24.459  0.00  0.00    +0.274 C 
ATOM      2  C   UNL     1     -20.290 -41.030  23.125  0.00  0.00    +0.078 C 
ATOM      3  C   UNL     1     -20.656 -39.582  23.240  0.00  0.00    +0.083 C 
ATOM      4  C   UNL     1     -21.964 -39.443  23.977  0.00  0.00    +0.014 C 
ATOM      5  C   UNL     1     -21.769 -39.950  25.384  0.00  0.00    +0.028 C 
ATOM      6  C   UNL     1     -20.572 -40.795  25.556  0.00  0.00    +0.014 C 
ATOM      7  C   UNL     1     -19.902 -40.695  26.692  0.00  0.00    -0.004 C 
ENDROOT
BRANCH   3   8
ATOM      8  C   UNL     1     -20.768 -39.046  21.843  0.00  0.00    +0.227 C 
ATOM      9  O   UNL     1     -19.761 -38.765  21.144  0.00  0.00    -0.275 OA
ATOM     10  N   UNL     1     -22.071 -38.851  21.296  0.00  0.00    -0.269 N 
ATOM     11  H   UNL     1     -22.856 -39.072  21.847  0.00  0.00    +0.156 HD
BRANCH  10  12
ATOM     12  C   UNL     1     -22.272 -38.349  19.986  0.00  0.00    +0.134 C 
ATOM     13  C   UNL     1     -21.915 -37.056  19.685  0.00  0.00    +0.034 C 
ATOM     14  C   UNL     1     -22.102 -36.532  18.400  0.00  0.00    +0.004 C 
ATOM     15  C   UNL     1     -22.654 -37.369  17.472  0.00  0.00    +0.021 C 
ATOM     16  C   UNL     1     -23.014 -38.668  17.768  0.00  0.00    +0.100 C 
ATOM     17  N   UNL     1     -22.808 -39.108  19.019  0.00  0.00    -0.229 NA
ENDBRANCH  10  12
ENDBRANCH   3   8
BRANCH   1  18
ATOM     18  S   UNL     1     -21.347 -43.073  24.487  0.00  0.00    +0.073 S 
ATOM     19  O   UNL     1     -21.973 -43.280  23.139  0.00  0.00    -0.154 OA
ATOM     20  O   UNL     1     -20.676 -44.359  24.874  0.00  0.00    -0.154 OA
BRANCH  18  21
ATOM     21  N   UNL     1     -22.568 -42.762  25.689  0.00  0.00    -0.204 NA
ATOM     22  H   UNL     1     -22.124 -42.624  26.597  0.00  0.00    +0.144 HD
ATOM     23  H   UNL     1     -23.206 -43.557  25.739  0.00  0.00    +0.144 HD
ENDBRANCH  18  21
ENDBRANCH   1  18
BRANCH   1  24
ATOM     24  O   UNL     1     -18.908 -42.300  24.672  0.00  0.00    -0.427 OA
BRANCH  24  25
ATOM     25  C   UNL     1     -17.703 -41.769  24.292  0.00  0.00    +0.343 C 
ATOM     26  O   UNL     1     -17.674 -40.933  23.382  0.00  0.00    -0.245 OA
BRANCH  25  27
ATOM     27  C   UNL     1     -16.470 -42.195  24.964  0.00  0.00    +0.076 C 
ATOM     28  C   UNL     1     -15.362 -42.609  24.251  0.00  0.00    +0.006 C 
ATOM     29  C   UNL     1     -14.209 -43.009  24.887  0.00  0.00    +0.000 C 
ATOM     30  C   UNL     1     -14.147 -42.998  26.262  0.00  0.00    +0.000 C 
ATOM     31  C   UNL     1     -15.236 -42.590  27.020  0.00  0.00    +0.000 C 
ATOM     32  C   UNL     1     -16.366 -42.201  26.334  0.00  0.00    +0.006 C 
ENDBRANCH  25  27
ENDBRANCH  24  25
ENDBRANCH   1  24
TORSDOF 7
