REMARK  Name = =
REMARK  8 active torsions:
REMARK  status: ('A' for Active; 'I' for Inactive)
REMARK    1  A    between atoms: C_1  and  C_6
REMARK    2  A    between atoms: N_3  and  C_24
REMARK    3  A    between atoms: C_4  and  S_11
REMARK    4  A    between atoms: C_4  and  O_15
REMARK    5  A    between atoms: S_11  and  N_14
REMARK    6  A    between atoms: O_15  and  C_16
REMARK    7  A    between atoms: C_16  and  C_18
REMARK    8  A    between atoms: C_27  and  C_30
REMARK                            x       y       z     vdW  Elec       q    Type
REMARK                         _______ _______ _______ _____ _____    ______ ____
ROOT
ATOM      1  C   UNL     1     -21.619 -39.037  21.949  0.00  0.00    +0.227 C 
ATOM      2  O   UNL     1     -20.512 -38.540  21.723  0.00  0.00    -0.275 OA
ATOM      3  N   UNL     1     -22.799 -38.655  21.264  0.00  0.00    -0.269 N 
ATOM      4  H   UNL     1     -23.634 -39.112  21.515  0.00  0.00    +0.156 HD
ENDROOT
BRANCH   1   7
ATOM      5  C   UNL     1     -20.441 -41.487  24.629  0.00  0.00    +0.274 C 
ATOM      6  C   UNL     1     -20.435 -40.627  23.396  0.00  0.00    +0.078 C 
ATOM      7  C   UNL     1     -21.762 -40.109  23.000  0.00  0.00    +0.083 C 
ATOM      8  C   UNL     1     -22.626 -39.584  24.076  0.00  0.00    +0.014 C 
ATOM      9  C   UNL     1     -22.399 -40.103  25.450  0.00  0.00    +0.028 C 
ATOM     10  C   UNL     1     -21.068 -40.666  25.711  0.00  0.00    +0.014 C 
ATOM     11  C   UNL     1     -20.471 -40.441  26.865  0.00  0.00    -0.004 C 
BRANCH   5  12
ATOM     12  S   UNL     1     -21.329 -42.984  24.414  0.00  0.00    +0.073 S 
ATOM     13  O   UNL     1     -22.651 -42.828  25.141  0.00  0.00    -0.154 OA
ATOM     14  O   UNL     1     -21.668 -43.229  22.979  0.00  0.00    -0.154 OA
BRANCH  12  15
ATOM     15  N   UNL     1     -20.469 -44.349  25.019  0.00  0.00    -0.204 NA
ATOM     16  H   UNL     1     -20.231 -44.194  25.999  0.00  0.00    +0.144 HD
ATOM     17  H   UNL     1     -19.614 -44.479  24.478  0.00  0.00    +0.144 HD
ENDBRANCH  12  15
ENDBRANCH   5  12
BRANCH   5  18
ATOM     18  O   UNL     1     -19.107 -41.697  25.014  0.00  0.00    -0.427 OA
BRANCH  18  19
ATOM     19  C   UNL     1     -18.028 -41.901  24.207  0.00  0.00    +0.343 C 
ATOM     20  O   UNL     1     -18.171 -41.863  22.978  0.00  0.00    -0.245 OA
BRANCH  19  21
ATOM     21  C   UNL     1     -16.703 -42.164  24.813  0.00  0.00    +0.076 C 
ATOM     22  C   UNL     1     -15.605 -42.414  24.010  0.00  0.00    +0.006 C 
ATOM     23  C   UNL     1     -14.374 -42.658  24.581  0.00  0.00    +0.000 C 
ATOM     24  C   UNL     1     -14.183 -42.666  25.943  0.00  0.00    +0.000 C 
ATOM     25  C   UNL     1     -15.276 -42.417  26.751  0.00  0.00    +0.000 C 
ATOM     26  C   UNL     1     -16.507 -42.173  26.174  0.00  0.00    +0.006 C 
ENDBRANCH  19  21
ENDBRANCH  18  19
ENDBRANCH   5  18
ENDBRANCH   1   7
BRANCH   3  27
ATOM     27  C   UNL     1     -22.877 -37.671  20.249  0.00  0.00    +0.134 C 
ATOM     28  C   UNL     1     -21.943 -36.694  20.011  0.00  0.00    +0.034 C 
ATOM     29  C   UNL     1     -22.083 -35.749  18.987  0.00  0.00    +0.004 C 
ATOM     30  C   UNL     1     -23.187 -35.799  18.194  0.00  0.00    +0.019 C 
ATOM     31  C   UNL     1     -24.109 -36.785  18.451  0.00  0.00    +0.100 C 
ATOM     32  N   UNL     1     -23.956 -37.678  19.435  0.00  0.00    -0.229 NA
BRANCH  30  33
ATOM     33  C   UNL     1     -23.380 -34.896  17.085  0.00  0.00    +0.005 C 
ATOM     34  C   UNL     1     -24.228 -33.832  17.183  0.00  0.00    +0.042 C 
ATOM     35  C   UNL     1     -24.421 -33.032  16.067  0.00  0.00    +0.042 C 
ATOM     36  C   UNL     1     -23.788 -33.276  14.870  0.00  0.00    +0.003 C 
ATOM     37  C   UNL     1     -22.937 -34.358  14.801  0.00  0.00    +0.000 C 
ATOM     38  C   UNL     1     -22.717 -35.176  15.885  0.00  0.00    +0.000 C 
ATOM     39  C   UNL     1     -25.302 -31.878  16.121  0.00  0.00    +0.196 C 
ATOM     40  O   UNL     1     -25.475 -31.156  15.102  0.00  0.00    -0.287 OA
ATOM     41  C   UNL     1     -25.992 -31.540  17.335  0.00  0.00    +0.042 C 
ATOM     42  C   UNL     1     -25.816 -32.312  18.454  0.00  0.00    +0.042 C 
ATOM     43  C   UNL     1     -26.481 -31.991  19.636  0.00  0.00    +0.003 C 
ATOM     44  C   UNL     1     -27.314 -30.884  19.656  0.00  0.00    +0.000 C 
ATOM     45  C   UNL     1     -27.509 -30.091  18.546  0.00  0.00    +0.000 C 
ATOM     46  C   UNL     1     -26.824 -30.454  17.396  0.00  0.00    +0.003 C 
ATOM     47  C   UNL     1     -24.934 -33.467  18.398  0.00  0.00    +0.196 C 
ATOM     48  O   UNL     1     -24.796 -34.146  19.434  0.00  0.00    -0.287 OA
ENDBRANCH  30  33
ENDBRANCH   3  27
TORSDOF 8
