MODEL 1
REMARK VINA RESULT:    -6.409      0.000      0.000
REMARK INTER + INTRA:          -6.052
REMARK INTER:                  -8.469
REMARK INTRA:                   2.417
REMARK UNBOUND:                 2.417
REMARK  Name = =
REMARK  6 active torsions:
REMARK  status: ('A' for Active; 'I' for Inactive)
REMARK    1  A    between atoms: C_1  and  C_6
REMARK    2  A    between atoms: C_1  and  N_22
REMARK    3  A    between atoms: C_6  and  N_17
REMARK    4  A    between atoms: N_17  and  N_18
REMARK    5  A    between atoms: N_17  and  O_20
REMARK    6  A    between atoms: C_23  and  C_25
REMARK                            x       y       z     vdW  Elec       q    Type
REMARK                         _______ _______ _______ _____ _____    ______ ____
ROOT
ATOM      1  C   UNL     1      62.620 166.928  37.165  0.00  0.00    +0.217 C 
ATOM      2  N   UNL     1      64.028 166.748  37.553  0.00  0.00    -0.226 NA
ATOM      3  C   UNL     1      64.338 167.449  38.556  0.00  0.00    +0.196 C 
ATOM      4  N   UNL     1      63.200 168.172  38.955  0.00  0.00    -0.224 NA
ATOM      5  C   UNL     1      62.199 167.905  38.192  0.00  0.00    +0.118 C 
ENDROOT
BRANCH   1   6
ATOM      6  C   UNL     1      62.664 167.453  35.770  0.00  0.00    +0.167 C 
ATOM      7  C   UNL     1      64.010 168.252  35.676  0.00  0.00    +0.030 C 
ATOM      8  C   UNL     1      63.966 169.580  36.263  0.00  0.00    +0.002 C 
ATOM      9  C   UNL     1      64.228 170.724  35.303  0.00  0.00    +0.000 C 
ATOM     10  C   UNL     1      65.420 170.429  34.422  0.00  0.00    +0.000 C 
ATOM     11  C   UNL     1      65.120 169.210  33.620  0.00  0.00    +0.000 C 
ATOM     12  C   UNL     1      64.506 168.084  34.308  0.00  0.00    +0.003 C 
ATOM     13  C   UNL     1      65.167 166.751  34.150  0.00  0.00    +0.004 C 
ATOM     14  C   UNL     1      64.145 165.706  34.626  0.00  0.00    +0.024 C 
ATOM     15  C   UNL     1      62.822 166.331  34.830  0.00  0.00    -0.018 C 
ATOM     16  C   UNL     1      61.799 165.860  34.151  0.00  0.00    -0.007 C 
BRANCH   6  17
ATOM     17  N   UNL     1      61.625 168.391  35.431  0.00  0.00    -0.122 N 
BRANCH  17  18
ATOM     18  N   UNL     1      61.528 168.925  34.114  0.00  0.00    +0.080 NA
ATOM     19  O   UNL     1      60.440 169.070  33.555  0.00  0.00    -0.122 OA
ENDBRANCH  17  18
BRANCH  17  20
ATOM     20  O   UNL     1      60.742 168.876  36.297  0.00  0.00    -0.267 OA
ATOM     21  H   UNL     1      60.977 169.790  36.521  0.00  0.00    +0.246 HD
ENDBRANCH  17  20
ENDBRANCH   6  17
ENDBRANCH   1   6
BRANCH   1  23
ATOM     22 BR   UNL     1      63.061 164.153  37.845  0.00  0.00    +0.042 Br
ATOM     23  N   UNL     1      61.947 165.686  37.374  0.00  0.00    -0.198 N 
ATOM     24  C   UNL     1      60.586 165.367  37.306  0.00  0.00    +0.277 C 
ATOM     25  O   UNL     1      59.724 166.207  37.019  0.00  0.00    -0.267 OA
BRANCH  24  26
ATOM     26  C   UNL     1      60.079 164.005  37.573  0.00  0.00    +0.135 C 
ATOM     27  N   UNL     1      59.937 163.519  38.812  0.00  0.00    -0.241 NA
ATOM     28  C   UNL     1      59.468 162.257  39.038  0.00  0.00    +0.081 C 
ATOM     29  C   UNL     1      59.116 161.421  37.998  0.00  0.00    +0.018 C 
ATOM     30  C   UNL     1      59.257 161.906  36.711  0.00  0.00    +0.003 C 
ATOM     31  C   UNL     1      59.740 163.203  36.514  0.00  0.00    +0.024 C 
ATOM     32  C   UNL     1      58.638 160.131  38.246  0.00  0.00    +0.001 C 
ATOM     33  C   UNL     1      58.505 159.665  39.531  0.00  0.00    +0.000 C 
ATOM     34  C   UNL     1      58.860 160.509  40.580  0.00  0.00    +0.002 C 
ATOM     35  C   UNL     1      59.331 161.778  40.318  0.00  0.00    +0.019 C 
ENDBRANCH  24  26
ENDBRANCH   1  23
TORSDOF 6
ENDMDL
