REMARK  Name = =
REMARK  6 active torsions:
REMARK  status: ('A' for Active; 'I' for Inactive)
REMARK    1  A    between atoms: C_1  and  C_6
REMARK    2  A    between atoms: C_1  and  N_22
REMARK    3  A    between atoms: C_6  and  N_17
REMARK    4  A    between atoms: N_17  and  N_18
REMARK    5  A    between atoms: N_17  and  O_20
REMARK    6  A    between atoms: C_23  and  C_25
REMARK                            x       y       z     vdW  Elec       q    Type
REMARK                         _______ _______ _______ _____ _____    ______ ____
ROOT
ATOM      1  C   UNL     1      53.219 154.052  28.342  0.00  0.00    +0.217 C 
ATOM      2  N   UNL     1      52.830 152.891  29.158  0.00  0.00    -0.226 NA
ATOM      3  C   UNL     1      53.805 152.413  29.800  0.00  0.00    +0.196 C 
ATOM      4  N   UNL     1      54.946 153.178  29.499  0.00  0.00    -0.224 NA
ATOM      5  C   UNL     1      54.658 154.122  28.674  0.00  0.00    +0.118 C 
ENDROOT
BRANCH   1   6
ATOM      6  C   UNL     1      52.911 153.661  26.936  0.00  0.00    +0.167 C 
ATOM      7  C   UNL     1      53.787 152.390  26.663  0.00  0.00    +0.030 C 
ATOM      8  C   UNL     1      55.181 152.669  26.367  0.00  0.00    +0.002 C 
ATOM      9  C   UNL     1      55.657 152.224  24.999  0.00  0.00    +0.000 C 
ATOM     10  C   UNL     1      55.184 150.822  24.691  0.00  0.00    +0.000 C 
ATOM     11  C   UNL     1      53.694 150.821  24.687  0.00  0.00    +0.000 C 
ATOM     12  C   UNL     1      53.016 151.531  25.761  0.00  0.00    +0.003 C 
ATOM     13  C   UNL     1      51.972 150.775  26.520  0.00  0.00    +0.004 C 
ATOM     14  C   UNL     1      51.164 151.825  27.301  0.00  0.00    +0.024 C 
ATOM     15  C   UNL     1      51.519 153.188  26.854  0.00  0.00    -0.018 C 
ATOM     16  C   UNL     1      50.562 153.958  26.384  0.00  0.00    -0.007 C 
BRANCH   6  17
ATOM     17  N   UNL     1      53.288 154.622  25.932  0.00  0.00    -0.122 N 
BRANCH  17  18
ATOM     18  N   UNL     1      52.765 154.536  24.609  0.00  0.00    +0.080 NA
ATOM     19  O   UNL     1      52.651 155.533  23.895  0.00  0.00    -0.122 OA
ENDBRANCH  17  18
BRANCH  17  20
ATOM     20  O   UNL     1      54.174 155.594  26.120  0.00  0.00    -0.267 OA
ATOM     21  H   UNL     1      54.477 155.582  27.041  0.00  0.00    +0.246 HD
ENDBRANCH  17  20
ENDBRANCH   6  17
ENDBRANCH   1   6
BRANCH   1  23
ATOM     22 BR   UNL     1      51.158 154.869  30.197  0.00  0.00    +0.042 Br
ATOM     23  N   UNL     1      52.546 155.198  28.863  0.00  0.00    -0.198 N 
ATOM     24  C   UNL     1      52.717 156.559  28.583  0.00  0.00    +0.277 C 
ATOM     25  O   UNL     1      53.549 156.964  27.761  0.00  0.00    -0.267 OA
BRANCH  24  26
ATOM     26  C   UNL     1      51.919 157.609  29.248  0.00  0.00    +0.135 C 
ATOM     27  N   UNL     1      50.628 157.445  29.559  0.00  0.00    -0.241 NA
ATOM     28  C   UNL     1      49.907 158.428  30.173  0.00  0.00    +0.081 C 
ATOM     29  C   UNL     1      50.477 159.641  30.504  0.00  0.00    +0.018 C 
ATOM     30  C   UNL     1      51.810 159.829  30.190  0.00  0.00    +0.003 C 
ATOM     31  C   UNL     1      52.520 158.801  29.561  0.00  0.00    +0.024 C 
ATOM     32  C   UNL     1      49.725 160.638  31.132  0.00  0.00    +0.001 C 
ATOM     33  C   UNL     1      48.402 160.435  31.436  0.00  0.00    +0.000 C 
ATOM     34  C   UNL     1      47.827 159.211  31.102  0.00  0.00    +0.002 C 
ATOM     35  C   UNL     1      48.582 158.239  30.482  0.00  0.00    +0.019 C 
ENDBRANCH  24  26
ENDBRANCH   1  23
TORSDOF 6
