REMARK  Name = =
REMARK  0 active torsions:
REMARK  status: ('A' for Active; 'I' for Inactive)
REMARK                            x       y       z     vdW  Elec       q    Type
REMARK                         _______ _______ _______ _____ _____    ______ ____
ROOT
ATOM      1  C   UNL     1      52.049 156.706  28.654  0.00  0.00    -0.009 C 
ATOM      2  C   UNL     1      50.923 155.959  28.922  0.00  0.00    -0.023 C 
ATOM      3  C   UNL     1      50.748 154.670  28.437  0.00  0.00    -0.004 C 
ATOM      4  C   UNL     1      51.712 154.076  27.653  0.00  0.00    -0.000 C 
ATOM      5  C   UNL     1      52.840 154.819  27.380  0.00  0.00    -0.000 C 
ATOM      6  C   UNL     1      53.018 156.101  27.860  0.00  0.00    -0.003 C 
ATOM      7  C   UNL     1      49.845 156.555  29.768  0.00  0.00    +0.045 C 
ATOM      8  C   UNL     1      50.508 157.597  30.644  0.00  0.00    +0.094 C 
ATOM      9  N   UNL     1      51.037 158.604  29.732  0.00  0.00    -0.213 NA
ATOM     10  C   UNL     1      52.253 158.095  29.167  0.00  0.00    +0.115 C 
ENDROOT
TORSDOF 0
