REMARK  Name = =
REMARK  2 active torsions:
REMARK  status: ('A' for Active; 'I' for Inactive)
REMARK    1  A    between atoms: C_7  and  N_11
REMARK    2  A    between atoms: N_11  and  N_12
REMARK                            x       y       z     vdW  Elec       q    Type
REMARK                         _______ _______ _______ _____ _____    ______ ____
ROOT
ATOM      1  C   UNL     1      52.145 154.736  28.565  0.00  0.00    +0.016 C 
ATOM      2  C   UNL     1      52.734 155.270  27.435  0.00  0.00    +0.000 C 
ATOM      3  C   UNL     1      52.814 156.641  27.372  0.00  0.00    -0.003 C 
ATOM      4  C   UNL     1      52.346 157.484  28.358  0.00  0.00    -0.000 C 
ATOM      5  C   UNL     1      51.759 156.924  29.483  0.00  0.00    +0.000 C 
ATOM      6  C   UNL     1      51.660 155.552  29.583  0.00  0.00    +0.001 C 
ATOM      7  C   UNL     1      53.203 154.328  26.431  0.00  0.00    +0.134 C 
ATOM      8  C   UNL     1      52.074 153.302  26.266  0.00  0.00    +0.151 C 
ATOM      9  N   UNL     1      52.068 152.529  27.487  0.00  0.00    -0.267 NA
ATOM     10  C   UNL     1      52.035 153.285  28.691  0.00  0.00    +0.093 C 
ENDROOT
BRANCH   7  11
ATOM     11  N   UNL     1      53.638 154.858  25.194  0.00  0.00    -0.253 N 
ATOM     12  H   UNL     1      53.404 155.778  24.932  0.00  0.00    +0.169 HD
BRANCH  11  13
ATOM     13  N   UNL     1      54.408 154.050  24.350  0.00  0.00    -0.182 NA
ATOM     14  C   UNL     1      55.687 153.929  24.507  0.00  0.00    +0.139 C 
ENDBRANCH  11  13
ENDBRANCH   7  11
TORSDOF 2
