REMARK  Name = =
REMARK  7 active torsions:
REMARK  status: ('A' for Active; 'I' for Inactive)
REMARK    1  A    between atoms: N_1  and  C_8
REMARK    2  A    between atoms: N_1  and  S_12
REMARK    3  A    between atoms: N_1  and  N_22
REMARK    4  A    between atoms: S_12  and  N_15
REMARK    5  A    between atoms: N_15  and  N_19
REMARK    6  A    between atoms: C_16  and  O_18
REMARK    7  A    between atoms: N_19  and  C_20
REMARK                            x       y       z     vdW  Elec       q    Type
REMARK                         _______ _______ _______ _____ _____    ______ ____
ROOT
ATOM      1  N   UNL     1      53.424 153.940  26.047  0.00  0.00    -0.093 N 
ENDROOT
BRANCH   1   8
ATOM      2  C   UNL     1      51.787 155.398  29.000  0.00  0.00    -0.007 C 
ATOM      3  C   UNL     1      52.535 155.352  27.848  0.00  0.00    -0.002 C 
ATOM      4  C   UNL     1      53.036 156.470  27.281  0.00  0.00    -0.003 C 
ATOM      5  C   UNL     1      52.773 157.697  27.916  0.00  0.00    -0.000 C 
ATOM      6  C   UNL     1      52.027 157.765  29.071  0.00  0.00    -0.000 C 
ATOM      7  C   UNL     1      51.527 156.621  29.627  0.00  0.00    -0.003 C 
ATOM      8  C   UNL     1      52.663 153.954  27.248  0.00  0.00    +0.156 C 
ATOM      9  C   UNL     1      51.271 153.443  27.197  0.00  0.00    +0.117 C 
ATOM     10  N   UNL     1      50.744 153.259  28.534  0.00  0.00    -0.211 NA
ATOM     11  C   UNL     1      51.297 154.108  29.538  0.00  0.00    +0.115 C 
ENDBRANCH   1   8
BRANCH   1  12
ATOM     12  S   UNL     1      55.010 153.133  26.133  0.00  0.00    +0.166 S 
ATOM     13  O   UNL     1      55.466 152.983  27.548  0.00  0.00    -0.132 OA
ATOM     14  O   UNL     1      56.052 153.975  25.443  0.00  0.00    -0.132 OA
BRANCH  12  15
ATOM     15  N   UNL     1      54.966 151.586  25.420  0.00  0.00    -0.027 N 
ATOM     16  C   UNL     1      53.800 150.872  25.192  0.00  0.00    +0.439 C 
ATOM     17  O   UNL     1      52.643 151.124  25.487  0.00  0.00    -0.223 OA
BRANCH  16  18
ATOM     18  O   UNL     1      53.923 149.613  24.462  0.00  0.00    -0.464 OA
ATOM     19  H   UNL     1      54.766 149.314  24.182  0.00  0.00    +0.297 HD
ENDBRANCH  16  18
BRANCH  15  20
ATOM     20  N   UNL     1      56.205 151.038  25.076  0.00  0.00    -0.174 N 
ATOM     21  H   UNL     1      56.280 150.385  24.343  0.00  0.00    +0.184 HD
BRANCH  20  22
ATOM     22  C   UNL     1      57.337 151.437  25.796  0.00  0.00    +0.186 C 
ATOM     23  N   UNL     1      58.294 151.789  26.401  0.00  0.00    -0.173 NA
ENDBRANCH  20  22
ENDBRANCH  15  20
ENDBRANCH  12  15
ENDBRANCH   1  12
BRANCH   1  24
ATOM     24  N   UNL     1      53.025 154.359  24.857  0.00  0.00    -0.157 NA
ATOM     25  C   UNL     1      52.511 155.217  24.165  0.00  0.00    +0.141 C 
ENDBRANCH   1  24
TORSDOF 7
