REMARK  Name = =
REMARK  1 active torsions:
REMARK  status: ('A' for Active; 'I' for Inactive)
REMARK    1  A    between atoms: C_3  and  C_26
REMARK                            x       y       z     vdW  Elec       q    Type
REMARK                         _______ _______ _______ _____ _____    ______ ____
ROOT
ATOM      1  S   UNL     1      -7.489 -42.437  31.465  0.00  0.00    -0.080 S 
ATOM      2  S   UNL     1      -8.382 -41.026  32.811  0.00  0.00    -0.076 S 
ATOM      3  C   UNL     1      -9.709 -41.685  33.762  0.00  0.00    +0.107 C 
ATOM      4  C   UNL     1     -11.111 -41.281  33.444  0.00  0.00    +0.103 C 
ATOM      5  C   UNL     1     -11.594 -41.707  32.120  0.00  0.00    +0.224 C 
ATOM      6  O   UNL     1     -10.759 -42.188  31.317  0.00  0.00    -0.275 OA
ATOM      7  N   UNL     1     -12.947 -41.595  31.718  0.00  0.00    -0.297 N 
ATOM      8  C   UNL     1     -14.095 -42.067  32.468  0.00  0.00    +0.176 C 
ATOM      9  C   UNL     1     -15.173 -42.537  31.541  0.00  0.00    +0.243 C 
ATOM     10  O   UNL     1     -16.359 -42.415  31.871  0.00  0.00    -0.273 OA
ATOM     11  N   UNL     1     -14.853 -43.121  30.289  0.00  0.00    -0.295 N 
ATOM     12  C   UNL     1     -13.724 -44.010  30.099  0.00  0.00    +0.176 C 
ATOM     13  C   UNL     1     -13.031 -43.716  28.842  0.00  0.00    +0.243 C 
ATOM     14  O   UNL     1     -12.451 -42.583  28.710  0.00  0.00    -0.273 OA
ATOM     15  N   UNL     1     -12.925 -44.575  27.719  0.00  0.00    -0.295 N 
ATOM     16  C   UNL     1     -12.653 -45.991  27.769  0.00  0.00    +0.176 C 
ATOM     17  C   UNL     1     -11.322 -46.335  27.195  0.00  0.00    +0.243 C 
ATOM     18  O   UNL     1     -11.282 -47.397  26.483  0.00  0.00    -0.273 OA
ATOM     19  N   UNL     1     -10.141 -45.592  27.380  0.00  0.00    -0.295 N 
ATOM     20  C   UNL     1      -9.627 -45.081  28.614  0.00  0.00    +0.176 C 
ATOM     21  C   UNL     1      -9.687 -46.054  29.741  0.00  0.00    +0.243 C 
ATOM     22  O   UNL     1     -10.305 -47.157  29.559  0.00  0.00    -0.273 OA
ATOM     23  N   UNL     1      -9.069 -45.745  30.968  0.00  0.00    -0.302 N 
ATOM     24  C   UNL     1      -7.749 -45.187  31.140  0.00  0.00    +0.102 C 
ATOM     25  C   UNL     1      -7.681 -44.085  32.176  0.00  0.00    +0.090 C 
ATOM     26  H   UNL     1     -13.124 -41.158  30.854  0.00  0.00    +0.150 HD
ATOM     27  H   UNL     1     -15.423 -42.913  29.514  0.00  0.00    +0.150 HD
ATOM     28  H   UNL     1     -13.047 -44.171  26.830  0.00  0.00    +0.150 HD
ATOM     29  H   UNL     1      -9.611 -45.403  26.572  0.00  0.00    +0.150 HD
ATOM     30  H   UNL     1      -9.586 -45.927  31.786  0.00  0.00    +0.150 HD
ENDROOT
BRANCH   3  31
ATOM     31  C   UNL     1      -9.458 -42.063  35.164  0.00  0.00    +0.071 C 
ATOM     32  C   UNL     1      -8.638 -41.281  35.978  0.00  0.00    +0.034 C 
ATOM     33  C   UNL     1      -8.227 -41.650  37.232  0.00  0.00    +0.006 C 
ATOM     34  C   UNL     1      -8.631 -42.871  37.759  0.00  0.00    +0.021 C 
ATOM     35  C   UNL     1      -9.442 -43.640  36.958  0.00  0.00    +0.098 C 
ATOM     36  N   UNL     1      -9.831 -43.245  35.724  0.00  0.00    -0.247 NA
ATOM     37  C   UNL     1      -7.474 -40.770  38.017  0.00  0.00    +0.021 C 
ATOM     38  C   UNL     1      -7.143 -39.532  37.536  0.00  0.00    +0.099 C 
ATOM     39  N   UNL     1      -7.559 -39.190  36.298  0.00  0.00    -0.242 NA
ATOM     40  C   UNL     1      -8.288 -40.040  35.535  0.00  0.00    +0.100 C 
ENDBRANCH   3  31
TORSDOF 1
