REMARK  Name = =
REMARK  1 active torsions:
REMARK  status: ('A' for Active; 'I' for Inactive)
REMARK    1  A    between atoms: C_7  and  N_8
REMARK                            x       y       z     vdW  Elec       q    Type
REMARK                         _______ _______ _______ _____ _____    ______ ____
ROOT
ATOM      1 CL   UNL     1      51.405 155.137  28.997  0.00  0.00    -0.081 Cl
ATOM      2  C   UNL     1      52.393 155.554  27.611  0.00  0.00    +0.072 C 
ATOM      3  C   UNL     1      52.763 156.859  27.361  0.00  0.00    +0.013 C 
ATOM      4  C   UNL     1      53.539 157.198  26.273  0.00  0.00    +0.001 C 
ATOM      5  C   UNL     1      53.938 156.178  25.434  0.00  0.00    +0.001 C 
ATOM      6  C   UNL     1      53.565 154.872  25.691  0.00  0.00    +0.016 C 
ATOM      7  C   UNL     1      52.788 154.523  26.775  0.00  0.00    +0.068 C 
ENDROOT
BRANCH   7   8
ATOM      8  N   UNL     1      52.411 153.162  27.025  0.00  0.00    -0.245 N 
ATOM      9  C   UNL     1      52.625 152.131  26.203  0.00  0.00    +0.172 C 
ATOM     10  N   UNL     1      52.129 151.018  26.787  0.00  0.00    -0.224 NA
ATOM     11  C   UNL     1      51.607 151.337  27.961  0.00  0.00    +0.117 C 
ATOM     12  C   UNL     1      51.784 152.695  28.118  0.00  0.00    +0.092 C 
ENDBRANCH   7   8
TORSDOF 1
