MODEL 1
REMARK VINA RESULT:   -10.130      0.000      0.000
REMARK INTER + INTRA:         -16.357
REMARK INTER:                 -15.164
REMARK INTRA:                  -1.193
REMARK UNBOUND:                -1.193
REMARK  Name = =
REMARK  9 active torsions:
REMARK  status: ('A' for Active; 'I' for Inactive)
REMARK    1  A    between atoms: S_1  and  S_2
REMARK    2  A    between atoms: S_1  and  C_20
REMARK    3  A    between atoms: S_2  and  N_3
REMARK    4  A    between atoms: S_2  and  S_15
REMARK    5  A    between atoms: S_15  and  S_16
REMARK    6  A    between atoms: S_16  and  C_17
REMARK    7  A    between atoms: C_17  and  O_19
REMARK    8  A    between atoms: C_20  and  O_22
REMARK    9  A    between atoms: O_22  and  C_23
REMARK                            x       y       z     vdW  Elec       q    Type
REMARK                         _______ _______ _______ _____ _____    ______ ____
ROOT
ATOM      1  S   UNL     1     -12.946 -45.201  28.769  0.00  0.00    -0.010 S 
ENDROOT
BRANCH   1   2
ATOM      2  S   UNL     1     -13.628 -43.679  28.502  0.00  0.00    -0.078 S 
ATOM      3  H   UNL     1     -12.613 -42.840  28.162  0.00  0.00    +0.120 HD
BRANCH   2   4
ATOM      4  N   UNL     1     -14.677 -43.328  27.397  0.00  0.00    -0.227 NA
ATOM      5  C   UNL     1     -14.202 -42.624  26.192  0.00  0.00    +0.105 C 
ATOM      6  C   UNL     1     -15.196 -42.925  25.096  0.00  0.00    +0.112 C 
ATOM      7  N   UNL     1     -16.476 -42.374  25.494  0.00  0.00    -0.275 N 
ATOM      8  C   UNL     1     -16.960 -42.557  26.843  0.00  0.00    +0.112 C 
ATOM      9  C   UNL     1     -15.826 -42.568  27.848  0.00  0.00    +0.105 C 
ATOM     10  C   UNL     1     -17.282 -41.647  24.580  0.00  0.00    +0.220 C 
ATOM     11  N   UNL     1     -16.876 -41.448  23.305  0.00  0.00    -0.212 NA
ATOM     12  C   UNL     1     -17.595 -40.771  22.401  0.00  0.00    +0.103 C 
ATOM     13  C   UNL     1     -18.819 -40.245  22.787  0.00  0.00    +0.041 C 
ATOM     14  C   UNL     1     -19.261 -40.436  24.094  0.00  0.00    +0.103 C 
ATOM     15  N   UNL     1     -18.471 -41.124  24.917  0.00  0.00    -0.212 NA
ENDBRANCH   2   4
BRANCH   2  16
ATOM     16  S   UNL     1     -14.601 -43.693  29.931  0.00  0.00    -0.014 S 
BRANCH  16  17
ATOM     17  S   UNL     1     -13.919 -44.375  31.666  0.00  0.00    -0.000 S 
BRANCH  17  18
ATOM     18  C   UNL     1     -14.415 -43.579  33.154  0.00  0.00    +0.209 C 
ATOM     19  S   UNL     1     -14.353 -41.927  33.186  0.00  0.00    -0.003 S 
BRANCH  18  20
ATOM     20  O   UNL     1     -14.851 -44.224  34.300  0.00  0.00    -0.495 OA
ATOM     21  H   UNL     1     -14.484 -44.000  35.132  0.00  0.00    +0.293 HD
ENDBRANCH  18  20
ENDBRANCH  17  18
ENDBRANCH  16  17
ENDBRANCH   2  16
ENDBRANCH   1   2
BRANCH   1  22
ATOM     22  C   UNL     1     -11.331 -45.394  29.170  0.00  0.00    +0.212 C 
ATOM     23  S   UNL     1     -10.244 -46.268  28.291  0.00  0.00    -0.003 S 
BRANCH  22  24
ATOM     24  O   UNL     1     -10.779 -44.802  30.327  0.00  0.00    -0.462 OA
BRANCH  24  25
ATOM     25  C   UNL     1     -10.557 -43.385  30.357  0.00  0.00    +0.200 C 
ATOM     26  C   UNL     1      -9.916 -42.969  31.611  0.00  0.00    +0.017 C 
ATOM     27  C   UNL     1      -8.537 -42.985  31.664  0.00  0.00    -0.019 C 
ATOM     28  C   UNL     1      -7.791 -43.412  30.478  0.00  0.00    +0.031 C 
ATOM     29  C   UNL     1      -8.373 -42.995  29.174  0.00  0.00    +0.063 C 
ATOM     30  C   UNL     1      -9.857 -42.946  29.120  0.00  0.00    +0.147 C 
ATOM     31  C   UNL     1     -10.202 -41.607  28.649  0.00  0.00    +0.321 C 
ATOM     32  O   UNL     1     -11.323 -41.059  28.745  0.00  0.00    -0.250 OA
ATOM     33  O   UNL     1      -9.072 -41.053  28.076  0.00  0.00    -0.448 OA
ATOM     34  C   UNL     1      -7.934 -41.643  28.693  0.00  0.00    +0.209 C 
ATOM     35  C   UNL     1      -7.916 -42.594  32.843  0.00  0.00    +0.036 C 
ATOM     36  C   UNL     1      -8.610 -42.190  33.962  0.00  0.00    +0.176 C 
ATOM     37  C   UNL     1      -9.987 -42.178  33.898  0.00  0.00    +0.176 C 
ATOM     38  C   UNL     1     -10.610 -42.564  32.730  0.00  0.00    +0.039 C 
ATOM     39  O   UNL     1     -10.435 -41.736  35.148  0.00  0.00    -0.435 OA
ATOM     40  C   UNL     1      -9.354 -41.207  35.886  0.00  0.00    +0.429 C 
ATOM     41  O   UNL     1      -8.222 -41.761  35.236  0.00  0.00    -0.435 OA
ENDBRANCH  24  25
ENDBRANCH  22  24
ENDBRANCH   1  22
TORSDOF 9
ENDMDL
