MODEL 1
REMARK VINA RESULT:    -9.372      0.000      0.000
REMARK INTER + INTRA:         -11.636
REMARK INTER:                 -10.742
REMARK INTRA:                  -0.894
REMARK UNBOUND:                -0.894
REMARK  Name = =
REMARK  3 active torsions:
REMARK  status: ('A' for Active; 'I' for Inactive)
REMARK    1  A    between atoms: C_15  and  C_17
REMARK    2  A    between atoms: C_16  and  N_35
REMARK    3  A    between atoms: C_29  and  O_34
REMARK                            x       y       z     vdW  Elec       q    Type
REMARK                         _______ _______ _______ _____ _____    ______ ____
ROOT
ATOM      1  C   UNL     1       5.173  -3.151  24.014  0.00  0.00    +0.137 C 
ATOM      2  N   UNL     1       5.952  -3.683  23.065  0.00  0.00    -0.209 NA
ATOM      3  C   UNL     1       6.043  -3.209  21.810  0.00  0.00    +0.200 C 
ATOM      4  N   UNL     1       5.319  -2.135  21.451  0.00  0.00    -0.224 NA
ATOM      5  C   UNL     1       4.493  -1.532  22.368  0.00  0.00    +0.089 C 
ATOM      6  C   UNL     1       4.422  -2.039  23.645  0.00  0.00    +0.068 C 
ATOM      7  C   UNL     1       3.575  -1.415  24.560  0.00  0.00    +0.103 C 
ATOM      8  N   UNL     1       2.864  -0.348  24.168  0.00  0.00    -0.242 NA
ATOM      9  C   UNL     1       2.931   0.150  22.922  0.00  0.00    +0.100 C 
ATOM     10  C   UNL     1       3.751  -0.429  21.982  0.00  0.00    +0.040 C 
ATOM     11  N   UNL     1       5.061  -3.568  25.340  0.00  0.00    -0.278 N 
ATOM     12  C   UNL     1       5.721  -2.697  26.278  0.00  0.00    +0.094 C 
ATOM     13  C   UNL     1       5.248  -3.024  27.651  0.00  0.00    +0.022 C 
ATOM     14  C   UNL     1       5.170  -4.469  27.991  0.00  0.00    +0.005 C 
ATOM     15  C   UNL     1       4.584  -5.295  26.785  0.00  0.00    +0.038 C 
ATOM     16  C   UNL     1       5.493  -4.882  25.679  0.00  0.00    +0.160 C 
ENDROOT
BRANCH  15  17
ATOM     17  C   UNL     1       3.175  -4.887  26.804  0.00  0.00    +0.003 C 
ATOM     18  C   UNL     1       2.634  -5.498  28.144  0.00  0.00    +0.000 C 
ATOM     19  C   UNL     1       1.477  -4.675  28.656  0.00  0.00    +0.000 C 
ATOM     20  C   UNL     1       1.197  -5.160  30.090  0.00  0.00    +0.004 C 
ATOM     21  C   UNL     1       1.032  -6.644  30.010  0.00  0.00    +0.022 C 
ATOM     22  C   UNL     1       0.956  -7.136  28.622  0.00  0.00    +0.004 C 
ATOM     23  C   UNL     1      -0.211  -7.850  28.183  0.00  0.00    +0.005 C 
ATOM     24  C   UNL     1      -1.431  -7.435  29.021  0.00  0.00    +0.026 C 
ATOM     25  C   UNL     1      -1.166  -7.604  30.462  0.00  0.00    -0.023 C 
ATOM     26  C   UNL     1       0.063  -7.206  30.936  0.00  0.00    -0.026 C 
ATOM     27  C   UNL     1       0.365  -7.340  32.272  0.00  0.00    -0.001 C 
ATOM     28  C   UNL     1      -0.536  -7.873  33.180  0.00  0.00    +0.036 C 
ATOM     29  C   UNL     1      -1.753  -8.261  32.672  0.00  0.00    +0.133 C 
ATOM     30  C   UNL     1      -2.082  -8.138  31.339  0.00  0.00    +0.032 C 
ATOM     31  C   UNL     1       2.094  -6.861  27.767  0.00  0.00    +0.000 C 
ATOM     32  C   UNL     1       1.909  -6.865  26.290  0.00  0.00    +0.000 C 
ATOM     33  C   UNL     1       2.175  -5.401  25.880  0.00  0.00    +0.000 C 
BRANCH  29  34
ATOM     34  O   UNL     1      -2.679  -8.802  33.572  0.00  0.00    -0.506 OA
ATOM     35  H   UNL     1      -2.769  -9.731  33.648  0.00  0.00    +0.292 HD
ENDBRANCH  29  34
ENDBRANCH  15  17
BRANCH  16  36
ATOM     36  N   UNL     1       5.833  -5.798  24.662  0.00  0.00    -0.207 N 
ATOM     37  C   UNL     1       7.134  -6.266  24.373  0.00  0.00    +0.256 C 
ATOM     38  O   UNL     1       8.231  -5.958  24.990  0.00  0.00    -0.269 OA
ATOM     39  C   UNL     1       7.095  -7.185  23.242  0.00  0.00    +0.058 C 
ATOM     40  C   UNL     1       5.790  -7.273  22.851  0.00  0.00    +0.058 C 
ATOM     41  C   UNL     1       5.500  -8.108  21.770  0.00  0.00    +0.005 C 
ATOM     42  C   UNL     1       6.470  -8.826  21.105  0.00  0.00    +0.000 C 
ATOM     43  C   UNL     1       7.784  -8.735  21.501  0.00  0.00    +0.000 C 
ATOM     44  C   UNL     1       8.081  -7.902  22.584  0.00  0.00    +0.005 C 
ATOM     45  C   UNL     1       4.981  -6.411  23.725  0.00  0.00    +0.256 C 
ATOM     46  O   UNL     1       3.749  -6.348  23.530  0.00  0.00    -0.269 OA
ENDBRANCH  16  36
TORSDOF 3
ENDMDL
