MODEL 1
REMARK VINA RESULT:    -9.842      0.000      0.000
REMARK INTER + INTRA:         -12.629
REMARK INTER:                 -12.143
REMARK INTRA:                  -0.486
REMARK UNBOUND:                -0.486
REMARK  Name = =
REMARK  4 active torsions:
REMARK  status: ('A' for Active; 'I' for Inactive)
REMARK    1  A    between atoms: C_1  and  C_16
REMARK    2  A    between atoms: C_3  and  N_30
REMARK    3  A    between atoms: N_6  and  C_36
REMARK    4  A    between atoms: C_18  and  C_21
REMARK                            x       y       z     vdW  Elec       q    Type
REMARK                         _______ _______ _______ _____ _____    ______ ____
ROOT
ATOM      1  C   UNL     1       0.847  -4.329  28.016  0.00  0.00    +0.081 C 
ATOM      2  N   UNL     1       1.783  -3.441  27.900  0.00  0.00    -0.246 NA
ATOM      3  C   UNL     1       3.172  -3.404  27.575  0.00  0.00    +0.240 C 
ATOM      4  C   UNL     1       3.901  -4.574  28.135  0.00  0.00    +0.267 C 
ATOM      5  O   UNL     1       4.844  -4.402  28.866  0.00  0.00    -0.271 OA
ATOM      6  N   UNL     1       3.533  -5.944  27.839  0.00  0.00    -0.258 N 
ATOM      7  C   UNL     1       2.229  -6.517  27.862  0.00  0.00    +0.055 C 
ATOM      8  C   UNL     1       1.056  -5.749  27.696  0.00  0.00    +0.032 C 
ATOM      9  C   UNL     1      -0.124  -6.376  27.429  0.00  0.00    +0.014 C 
ATOM     10  C   UNL     1      -0.139  -7.752  27.348  0.00  0.00    +0.058 C 
ATOM     11  C   UNL     1       1.011  -8.489  27.530  0.00  0.00    +0.013 C 
ATOM     12  C   UNL     1       2.203  -7.878  27.790  0.00  0.00    +0.016 C 
ATOM     13 CL   UNL     1      -1.675  -8.567  27.003  0.00  0.00    -0.082 Cl
ENDROOT
BRANCH   1  16
ATOM     14  F   UNL     1      -0.276  -2.359  26.520  0.00  0.00    -0.204 F 
ATOM     15  C   UNL     1      -0.942  -2.752  27.633  0.00  0.00    +0.142 C 
ATOM     16  C   UNL     1      -0.457  -3.830  28.400  0.00  0.00    +0.045 C 
ATOM     17  C   UNL     1      -1.209  -4.121  29.485  0.00  0.00    +0.005 C 
ATOM     18  C   UNL     1      -2.382  -3.461  29.877  0.00  0.00    +0.014 C 
ATOM     19  C   UNL     1      -2.808  -2.426  29.097  0.00  0.00    +0.004 C 
ATOM     20  C   UNL     1      -2.073  -2.063  27.954  0.00  0.00    +0.030 C 
BRANCH  18  21
ATOM     21  C   UNL     1      -3.045  -3.866  31.116  0.00  0.00    +0.048 C 
ATOM     22  C   UNL     1      -3.449  -5.082  31.586  0.00  0.00    +0.015 C 
ATOM     23  C   UNL     1      -3.391  -6.337  31.049  0.00  0.00    +0.001 C 
ATOM     24  C   UNL     1      -3.849  -7.478  31.717  0.00  0.00    +0.000 C 
ATOM     25  C   UNL     1      -4.382  -7.323  32.979  0.00  0.00    +0.000 C 
ATOM     26  C   UNL     1      -4.439  -6.069  33.521  0.00  0.00    +0.001 C 
ATOM     27  C   UNL     1      -3.985  -4.949  32.855  0.00  0.00    +0.016 C 
ATOM     28  C   UNL     1      -3.900  -3.610  33.160  0.00  0.00    +0.062 C 
ATOM     29  N   UNL     1      -3.340  -2.981  32.119  0.00  0.00    -0.312 N 
ATOM     30  H   UNL     1      -3.165  -2.014  32.079  0.00  0.00    +0.152 HD
ENDBRANCH  18  21
ENDBRANCH   1  16
BRANCH   3  31
ATOM     31  N   UNL     1       3.358  -3.107  26.227  0.00  0.00    -0.245 NA
ATOM     32  C   UNL     1       4.377  -2.191  25.872  0.00  0.00    +0.093 C 
ATOM     33  C   UNL     1       4.112  -1.388  24.634  0.00  0.00    +0.106 C 
ATOM     34  N   UNL     1       3.359  -2.099  23.633  0.00  0.00    -0.215 NA
ATOM     35  C   UNL     1       3.364  -3.547  23.894  0.00  0.00    +0.106 C 
ATOM     36  C   UNL     1       2.613  -3.699  25.218  0.00  0.00    +0.093 C 
ENDBRANCH   3  31
BRANCH   6  37
ATOM     37  C   UNL     1       4.642  -6.798  27.508  0.00  0.00    +0.080 C 
ATOM     38  C   UNL     1       5.232  -6.320  26.086  0.00  0.00    +0.022 C 
ATOM     39  C   UNL     1       4.841  -7.701  26.332  0.00  0.00    +0.022 C 
ENDBRANCH   6  37
TORSDOF 4
ENDMDL
