REMARK  Name = =
REMARK  0 active torsions:
REMARK  status: ('A' for Active; 'I' for Inactive)
REMARK                            x       y       z     vdW  Elec       q    Type
REMARK                         _______ _______ _______ _____ _____    ______ ____
ROOT
ATOM      1  C   UNL     1      -1.624  -3.354  29.890  0.00  0.00    -0.026 C 
ATOM      2  C   UNL     1      -1.304  -4.606  29.584  0.00  0.00    -0.026 C 
ATOM      3  C   UNL     1      -0.610  -4.828  28.282  0.00  0.00    +0.052 C 
ATOM      4  C   UNL     1       0.408  -3.736  28.181  0.00  0.00    -0.021 C 
ATOM      5  C   UNL     1       0.097  -2.432  28.519  0.00  0.00    -0.021 C 
ATOM      6  C   UNL     1       0.991  -1.386  28.445  0.00  0.00    -0.004 C 
ATOM      7  C   UNL     1       2.271  -1.677  28.006  0.00  0.00    -0.000 C 
ATOM      8  C   UNL     1       2.641  -2.970  27.652  0.00  0.00    -0.000 C 
ATOM      9  C   UNL     1       1.695  -3.973  27.749  0.00  0.00    -0.004 C 
ATOM     10  C   UNL     1      -1.310  -2.206  28.985  0.00  0.00    +0.052 C 
ENDROOT
TORSDOF 0
