REMARK  Name = =
REMARK  0 active torsions:
REMARK  status: ('A' for Active; 'I' for Inactive)
REMARK                            x       y       z     vdW  Elec       q    Type
REMARK                         _______ _______ _______ _____ _____    ______ ____
ROOT
ATOM      1  N   UNL     1      -4.038  -4.132  30.766  0.00  0.00    -0.265 N 
ATOM      2  C   UNL     1      -3.420  -5.302  31.043  0.00  0.00    +0.311 C 
ATOM      3  O   UNL     1      -4.036  -6.284  31.523  0.00  0.00    -0.252 OA
ATOM      4  N   UNL     1      -2.104  -5.441  30.805  0.00  0.00    -0.234 N 
ATOM      5  C   UNL     1      -1.335  -4.463  30.293  0.00  0.00    +0.282 C 
ATOM      6  O   UNL     1      -0.103  -4.594  30.070  0.00  0.00    -0.267 OA
ATOM      7  C   UNL     1      -1.942  -3.258  30.001  0.00  0.00    +0.208 C 
ATOM      8  C   UNL     1      -3.299  -3.134  30.253  0.00  0.00    +0.100 C 
ATOM      9  F   UNL     1      -1.263  -2.219  29.486  0.00  0.00    -0.198 F 
ATOM     10  H   UNL     1      -5.001  -4.015  30.935  0.00  0.00    +0.157 HD
ATOM     11  H   UNL     1      -1.681  -6.304  31.017  0.00  0.00    +0.159 HD
ENDROOT
TORSDOF 0
