REMARK  Name = =
REMARK  1 active torsions:
REMARK  status: ('A' for Active; 'I' for Inactive)
REMARK    1  A    between atoms: C_10  and  C_11
REMARK                            x       y       z     vdW  Elec       q    Type
REMARK                         _______ _______ _______ _____ _____    ______ ____
ROOT
ATOM      1  C   UNL     1      -2.635  -3.752  29.123  0.00  0.00    -0.019 C 
ATOM      2  C   UNL     1      -1.964  -2.782  28.539  0.00  0.00    -0.025 C 
ATOM      3  C   UNL     1      -0.632  -2.355  29.049  0.00  0.00    +0.052 C 
ATOM      4  C   UNL     1       0.131  -3.526  29.551  0.00  0.00    -0.021 C 
ATOM      5  C   UNL     1      -0.575  -4.540  30.164  0.00  0.00    -0.015 C 
ATOM      6  C   UNL     1       0.078  -5.655  30.652  0.00  0.00    -0.004 C 
ATOM      7  C   UNL     1       1.453  -5.725  30.508  0.00  0.00    -0.000 C 
ATOM      8  C   UNL     1       2.188  -4.732  29.902  0.00  0.00    -0.000 C 
ATOM      9  C   UNL     1       1.501  -3.633  29.427  0.00  0.00    -0.004 C 
ATOM     10  C   UNL     1      -2.064  -4.429  30.302  0.00  0.00    +0.108 C 
ENDROOT
BRANCH  10  11
ATOM     11  C   UNL     1      -2.597  -5.775  30.530  0.00  0.00    +0.216 C 
ATOM     12  O   UNL     1      -3.483  -5.990  31.317  0.00  0.00    -0.288 OA
ENDBRANCH  10  11
TORSDOF 1
