REMARK  Name = =
REMARK  3 active torsions:
REMARK  status: ('A' for Active; 'I' for Inactive)
REMARK    1  A    between atoms: C_8  and  N_10
REMARK    2  A    between atoms: N_10  and  N_11
REMARK    3  A    between atoms: C_12  and  O_14
REMARK                            x       y       z     vdW  Elec       q    Type
REMARK                         _______ _______ _______ _____ _____    ______ ____
ROOT
ATOM      1  N   UNL     1      -3.751  -4.516  31.425  0.00  0.00    -0.293 N 
ATOM      2  C   UNL     1      -4.464  -3.504  30.882  0.00  0.00    +0.328 A 
ATOM      3  O   UNL     1      -5.617  -3.245  31.312  0.00  0.00    -0.247 OA
ATOM      4  N   UNL     1      -3.927  -2.787  29.888  0.00  0.00    -0.273 N 
ATOM      5  C   UNL     1      -2.703  -3.029  29.402  0.00  0.00    +0.291 A 
ATOM      6  O   UNL     1      -2.270  -2.321  28.476  0.00  0.00    -0.265 OA
ATOM      7  C   UNL     1      -1.994  -4.064  29.968  0.00  0.00    +0.226 A 
ATOM      8  C   UNL     1      -2.511  -4.826  30.993  0.00  0.00    +0.158 A 
ATOM      9  F   UNL     1      -0.763  -4.336  29.508  0.00  0.00    -0.196 F 
ATOM     10  H   UNL     1      -4.148  -5.042  32.157  0.00  0.00    +0.172 HD
ATOM     11  H   UNL     1      -4.453  -2.052  29.498  0.00  0.00    +0.174 HD
ENDROOT
BRANCH   8  12
ATOM     12  N   UNL     1      -1.786  -5.898  31.586  0.00  0.00    -0.245 N 
ATOM     13  H   UNL     1      -0.818  -5.812  31.746  0.00  0.00    +0.172 HD
BRANCH  12  14
ATOM     14  N   UNL     1      -2.449  -7.065  31.938  0.00  0.00    -0.201 N 
ATOM     15  C   UNL     1      -3.000  -7.214  33.228  0.00  0.00    +0.414 C 
ATOM     16  O   UNL     1      -2.852  -6.228  34.024  0.00  0.00    -0.225 OA
ATOM     17  H   UNL     1      -2.536  -7.794  31.283  0.00  0.00    +0.176 HD
BRANCH  15  18
ATOM     18  O   UNL     1      -3.672  -8.338  33.659  0.00  0.00    -0.465 OA
ATOM     19  H   UNL     1      -3.785  -9.067  33.081  0.00  0.00    +0.297 HD
ENDBRANCH  15  18
ENDBRANCH  12  14
ENDBRANCH   8  12
TORSDOF 3
