REMARK  Name = =
REMARK  5 active torsions:
REMARK  status: ('A' for Active; 'I' for Inactive)
REMARK    1  A    between atoms: C_2  and  C_11
REMARK    2  A    between atoms: C_10  and  C_20
REMARK    3  A    between atoms: C_13  and  O_19
REMARK    4  A    between atoms: C_14  and  O_18
REMARK    5  A    between atoms: C_15  and  O_17
REMARK                            x       y       z     vdW  Elec       q    Type
REMARK                         _______ _______ _______ _____ _____    ______ ____
ROOT
ATOM      1  C   UNL     1      -2.341  -3.304  30.535  0.00  0.00    +0.003 C 
ATOM      2  C   UNL     1      -2.322  -2.160  29.927  0.00  0.00    +0.000 C 
ATOM      3  C   UNL     1      -1.229  -1.855  28.934  0.00  0.00    +0.000 C 
ATOM      4  C   UNL     1      -0.088  -2.770  29.028  0.00  0.00    +0.000 C 
ATOM      5  C   UNL     1      -0.118  -3.977  29.687  0.00  0.00    +0.003 C 
ATOM      6  C   UNL     1       1.018  -4.753  29.711  0.00  0.00    +0.000 C 
ATOM      7  C   UNL     1       2.198  -4.352  29.085  0.00  0.00    +0.000 C 
ATOM      8  C   UNL     1       2.213  -3.147  28.432  0.00  0.00    +0.000 C 
ATOM      9  C   UNL     1       1.086  -2.353  28.396  0.00  0.00    +0.000 C 
ATOM     10  C   UNL     1      -1.362  -4.416  30.356  0.00  0.00    +0.042 C 
ENDROOT
BRANCH   2  11
ATOM     11  C   UNL     1      -3.300  -1.107  30.134  0.00  0.00    +0.006 C 
ATOM     12  C   UNL     1      -3.292   0.054  29.355  0.00  0.00    +0.040 C 
ATOM     13  C   UNL     1      -4.202   1.072  29.528  0.00  0.00    +0.171 C 
ATOM     14  C   UNL     1      -5.152   0.932  30.510  0.00  0.00    +0.202 C 
ATOM     15  C   UNL     1      -5.178  -0.212  31.293  0.00  0.00    +0.171 C 
ATOM     16  C   UNL     1      -4.248  -1.242  31.110  0.00  0.00    +0.040 C 
BRANCH  15  17
ATOM     17  O   UNL     1      -6.146  -0.328  32.276  0.00  0.00    -0.503 OA
ATOM     18  H   UNL     1      -6.771   0.359  32.402  0.00  0.00    +0.292 HD
ENDBRANCH  15  17
BRANCH  14  19
ATOM     19  O   UNL     1      -6.076   1.948  30.697  0.00  0.00    -0.501 OA
ATOM     20  H   UNL     1      -6.045   2.715  30.159  0.00  0.00    +0.292 HD
ENDBRANCH  14  19
BRANCH  13  21
ATOM     21  O   UNL     1      -4.186   2.217  28.753  0.00  0.00    -0.503 OA
ATOM     22  H   UNL     1      -3.541   2.319  28.081  0.00  0.00    +0.292 HD
ENDBRANCH  13  21
ENDBRANCH   2  11
BRANCH  10  23
ATOM     23  C   UNL     1      -1.999  -5.573  29.673  0.00  0.00    +0.234 C 
ATOM     24  O   UNL     1      -3.153  -5.470  29.308  0.00  0.00    -0.283 OA
ENDBRANCH  10  23
TORSDOF 5
