REMARK  Name = =
REMARK  5 active torsions:
REMARK  status: ('A' for Active; 'I' for Inactive)
REMARK    1  A    between atoms: N_1  and  O_20
REMARK    2  A    between atoms: C_12  and  O_19
REMARK    3  A    between atoms: O_20  and  C_22
REMARK    4  A    between atoms: N_21  and  N_24
REMARK    5  A    between atoms: N_24  and  C_32
REMARK                            x       y       z     vdW  Elec       q    Type
REMARK                         _______ _______ _______ _____ _____    ______ ____
ROOT
ATOM      1  N   UNL     1      -3.626  -4.972  33.058  0.00  0.00    -0.117 NA
ATOM      2  C   UNL     1      -3.175  -6.289  33.483  0.00  0.00    +0.104 C 
ATOM      3  C   UNL     1      -2.927  -7.222  32.388  0.00  0.00    +0.047 C 
ATOM      4  C   UNL     1      -1.831  -6.674  31.506  0.00  0.00    +0.065 C 
ATOM      5  C   UNL     1      -1.438  -7.464  30.316  0.00  0.00    +0.174 C 
ATOM      6  O   UNL     1      -0.022  -7.601  30.316  0.00  0.00    -0.476 OA
ATOM      7  C   UNL     1       0.387  -7.394  31.646  0.00  0.00    +0.168 C 
ATOM      8  C   UNL     1      -0.641  -6.877  32.356  0.00  0.00    +0.014 C 
ATOM      9  C   UNL     1      -0.681  -6.540  33.664  0.00  0.00    -0.021 C 
ATOM     10  C   UNL     1       0.471  -6.740  34.380  0.00  0.00    -0.001 C 
ATOM     11  C   UNL     1       1.601  -7.273  33.733  0.00  0.00    +0.039 C 
ATOM     12  C   UNL     1       1.544  -7.593  32.373  0.00  0.00    +0.167 C 
ATOM     13  C   UNL     1      -1.909  -6.035  34.318  0.00  0.00    +0.046 C 
ATOM     14  C   UNL     1      -2.200  -8.750  30.164  0.00  0.00    +0.070 C 
ATOM     15  C   UNL     1      -3.631  -8.572  30.568  0.00  0.00    -0.027 C 
ATOM     16  C   UNL     1      -3.981  -7.837  31.638  0.00  0.00    -0.029 C 
ATOM     17  C   UNL     1      -2.101  -5.261  31.132  0.00  0.00    +0.029 C 
ATOM     18  C   UNL     1      -3.443  -4.745  31.654  0.00  0.00    +0.114 C 
ENDROOT
BRANCH  12  19
ATOM     19  O   UNL     1       2.661  -8.114  31.758  0.00  0.00    -0.503 OA
ATOM     20  H   UNL     1       2.635  -8.332  30.847  0.00  0.00    +0.292 HD
ENDBRANCH  12  19
BRANCH   1  21
ATOM     21  O   UNL     1      -4.986  -4.885  33.307  0.00  0.00    -0.349 OA
BRANCH  21  23
ATOM     22  N   UNL     1      -5.633  -3.625  31.311  0.00  0.00    -0.199 N 
ATOM     23  C   UNL     1      -5.767  -3.909  32.708  0.00  0.00    +0.436 C 
ATOM     24  O   UNL     1      -6.607  -3.249  33.352  0.00  0.00    -0.223 OA
ATOM     25  H   UNL     1      -4.977  -4.133  30.780  0.00  0.00    +0.176 HD
BRANCH  22  26
ATOM     26  N   UNL     1      -6.405  -2.650  30.681  0.00  0.00    -0.245 N 
ATOM     27  H   UNL     1      -6.359  -2.526  29.705  0.00  0.00    +0.172 HD
BRANCH  26  35
ATOM     28  N   UNL     1      -8.565  -2.156  31.668  0.00  0.00    -0.293 N 
ATOM     29  C   UNL     1      -9.361  -1.397  32.410  0.00  0.00    +0.328 A 
ATOM     30  O   UNL     1     -10.560  -1.710  32.574  0.00  0.00    -0.247 OA
ATOM     31  N   UNL     1      -8.926  -0.263  33.018  0.00  0.00    -0.273 N 
ATOM     32  C   UNL     1      -7.638   0.109  32.865  0.00  0.00    +0.291 A 
ATOM     33  O   UNL     1      -7.167   1.150  33.402  0.00  0.00    -0.265 OA
ATOM     34  C   UNL     1      -6.806  -0.698  32.081  0.00  0.00    +0.226 A 
ATOM     35  C   UNL     1      -7.259  -1.839  31.473  0.00  0.00    +0.158 A 
ATOM     36  F   UNL     1      -5.499  -0.329  31.921  0.00  0.00    -0.196 F 
ATOM     37  H   UNL     1      -8.930  -2.969  31.249  0.00  0.00    +0.172 HD
ATOM     38  H   UNL     1      -9.541   0.280  33.562  0.00  0.00    +0.174 HD
ENDBRANCH  26  35
ENDBRANCH  22  26
ENDBRANCH  21  23
ENDBRANCH   1  21
TORSDOF 5
