REMARK  Name = =
REMARK  6 active torsions:
REMARK  status: ('A' for Active; 'I' for Inactive)
REMARK    1  A    between atoms: C_1  and  N_11
REMARK    2  A    between atoms: C_2  and  C_24
REMARK    3  A    between atoms: C_10  and  C_33
REMARK    4  A    between atoms: C_26  and  O_32
REMARK    5  A    between atoms: C_27  and  O_31
REMARK    6  A    between atoms: C_28  and  O_30
REMARK                            x       y       z     vdW  Elec       q    Type
REMARK                         _______ _______ _______ _____ _____    ______ ____
ROOT
ATOM      1  C   UNL     1       2.922  -4.988  25.553  0.00  0.00    +0.049 C 
ATOM      2  C   UNL     1       3.930  -4.614  26.355  0.00  0.00    -0.005 C 
ATOM      3  C   UNL     1       4.006  -5.048  27.795  0.00  0.00    +0.053 C 
ATOM      4  C   UNL     1       2.657  -5.089  28.386  0.00  0.00    -0.021 C 
ATOM      5  C   UNL     1       1.623  -5.481  27.575  0.00  0.00    -0.013 C 
ATOM      6  C   UNL     1       0.351  -5.523  28.090  0.00  0.00    -0.004 C 
ATOM      7  C   UNL     1       0.131  -5.169  29.429  0.00  0.00    -0.000 C 
ATOM      8  C   UNL     1       1.179  -4.777  30.237  0.00  0.00    -0.000 C 
ATOM      9  C   UNL     1       2.478  -4.735  29.701  0.00  0.00    -0.004 C 
ATOM     10  C   UNL     1       1.889  -5.853  26.170  0.00  0.00    +0.125 C 
ENDROOT
BRANCH   1  11
ATOM     11  N   UNL     1       2.866  -4.560  24.202  0.00  0.00    -0.312 N 
ATOM     12  C   UNL     1       2.456  -3.285  23.906  0.00  0.00    +0.063 A 
ATOM     13  C   UNL     1       2.501  -3.155  22.535  0.00  0.00    +0.013 A 
ATOM     14  C   UNL     1       2.937  -4.359  22.029  0.00  0.00    -0.006 A 
ATOM     15  C   UNL     1       3.158  -5.219  23.071  0.00  0.00    +0.053 A 
ATOM     16  C   UNL     1       3.633  -6.614  22.899  0.00  0.00    +0.113 C 
ATOM     17  N   UNL     1       3.967  -6.872  21.498  0.00  0.00    -0.292 NA
ATOM     18  C   UNL     1       2.971  -6.307  20.615  0.00  0.00    +0.074 C 
ATOM     19  C   UNL     1       3.185  -4.812  20.646  0.00  0.00    +0.045 C 
ATOM     20  C   UNL     1       2.135  -1.959  21.909  0.00  0.00    +0.001 C 
ATOM     21  C   UNL     1       1.735  -0.932  22.725  0.00  0.00    +0.000 C 
ATOM     22  C   UNL     1       1.677  -1.016  24.086  0.00  0.00    +0.001 C 
ATOM     23  C   UNL     1       2.047  -2.220  24.678  0.00  0.00    +0.017 C 
ATOM     24  H   UNL     1       4.014  -7.880  21.346  0.00  0.00    +0.124 HD
ENDBRANCH   1  11
BRANCH   2  25
ATOM     25  C   UNL     1       5.024  -3.766  25.923  0.00  0.00    +0.004 C 
ATOM     26  C   UNL     1       5.519  -2.801  26.739  0.00  0.00    +0.040 C 
ATOM     27  C   UNL     1       6.595  -1.992  26.340  0.00  0.00    +0.171 C 
ATOM     28  C   UNL     1       7.117  -2.226  25.088  0.00  0.00    +0.202 C 
ATOM     29  C   UNL     1       6.615  -3.203  24.260  0.00  0.00    +0.171 C 
ATOM     30  C   UNL     1       5.563  -3.972  24.689  0.00  0.00    +0.040 C 
BRANCH  29  31
ATOM     31  O   UNL     1       7.167  -3.424  22.983  0.00  0.00    -0.503 OA
ATOM     32  H   UNL     1       6.815  -4.093  22.430  0.00  0.00    +0.292 HD
ENDBRANCH  29  31
BRANCH  28  33
ATOM     33  O   UNL     1       8.200  -1.440  24.634  0.00  0.00    -0.501 OA
ATOM     34  H   UNL     1       8.555  -0.770  25.184  0.00  0.00    +0.292 HD
ENDBRANCH  28  33
BRANCH  27  35
ATOM     35  O   UNL     1       7.099  -1.006  27.175  0.00  0.00    -0.503 OA
ATOM     36  H   UNL     1       6.722  -0.871  28.022  0.00  0.00    +0.292 HD
ENDBRANCH  27  35
ENDBRANCH   2  25
BRANCH  10  37
ATOM     37  C   UNL     1       2.393  -7.275  26.223  0.00  0.00    +0.217 C 
ATOM     38  O   UNL     1       1.687  -8.112  26.717  0.00  0.00    -0.288 OA
ENDBRANCH  10  37
TORSDOF 6
