REMARK  Name = =
REMARK  8 active torsions:
REMARK  status: ('A' for Active; 'I' for Inactive)
REMARK    1  A    between atoms: C_1  and  N_11
REMARK    2  A    between atoms: C_2  and  C_24
REMARK    3  A    between atoms: C_10  and  C_36
REMARK    4  A    between atoms: C_25  and  C_30
REMARK    5  A    between atoms: C_26  and  O_35
REMARK    6  A    between atoms: C_27  and  O_34
REMARK    7  A    between atoms: C_28  and  O_33
REMARK    8  A    between atoms: N_31  and  O_32
REMARK                            x       y       z     vdW  Elec       q    Type
REMARK                         _______ _______ _______ _____ _____    ______ ____
ROOT
ATOM      1  C   UNL     1       3.455  -5.369  22.560  0.00  0.00    +0.049 C 
ATOM      2  C   UNL     1       3.582  -4.066  22.595  0.00  0.00    -0.005 C 
ATOM      3  C   UNL     1       2.964  -3.256  21.494  0.00  0.00    +0.053 C 
ATOM      4  C   UNL     1       1.639  -3.873  21.167  0.00  0.00    -0.021 C 
ATOM      5  C   UNL     1       1.494  -5.265  21.142  0.00  0.00    -0.013 C 
ATOM      6  C   UNL     1       0.273  -5.819  20.815  0.00  0.00    -0.004 C 
ATOM      7  C   UNL     1      -0.798  -5.007  20.516  0.00  0.00    -0.000 C 
ATOM      8  C   UNL     1      -0.644  -3.615  20.544  0.00  0.00    -0.000 C 
ATOM      9  C   UNL     1       0.565  -3.065  20.866  0.00  0.00    -0.004 C 
ATOM     10  C   UNL     1       2.668  -6.070  21.462  0.00  0.00    +0.125 C 
ENDROOT
BRANCH   1  11
ATOM     11  N   UNL     1       4.077  -6.166  23.555  0.00  0.00    -0.312 N 
ATOM     12  C   UNL     1       3.559  -6.467  24.743  0.00  0.00    +0.063 A 
ATOM     13  C   UNL     1       4.449  -7.246  25.450  0.00  0.00    +0.013 A 
ATOM     14  C   UNL     1       5.534  -7.409  24.645  0.00  0.00    -0.006 A 
ATOM     15  C   UNL     1       5.282  -6.717  23.448  0.00  0.00    +0.053 A 
ATOM     16  C   UNL     1       6.389  -6.793  22.457  0.00  0.00    +0.113 C 
ATOM     17  N   UNL     1       6.718  -8.208  22.346  0.00  0.00    -0.292 NA
ATOM     18  C   UNL     1       7.372  -8.681  23.540  0.00  0.00    +0.074 C 
ATOM     19  C   UNL     1       6.823  -8.136  24.817  0.00  0.00    +0.045 C 
ATOM     20  C   UNL     1       4.132  -7.697  26.735  0.00  0.00    +0.001 C 
ATOM     21  C   UNL     1       2.924  -7.364  27.303  0.00  0.00    +0.000 C 
ATOM     22  C   UNL     1       2.028  -6.589  26.611  0.00  0.00    +0.001 C 
ATOM     23  C   UNL     1       2.364  -6.156  25.341  0.00  0.00    +0.017 C 
ATOM     24  H   UNL     1       7.339  -8.344  21.549  0.00  0.00    +0.124 HD
ENDBRANCH   1  11
BRANCH   2  25
ATOM     25  C   UNL     1       4.354  -3.436  23.645  0.00  0.00    +0.005 C 
ATOM     26  C   UNL     1       3.716  -2.774  24.699  0.00  0.00    +0.059 C 
ATOM     27  C   UNL     1       4.451  -2.113  25.658  0.00  0.00    +0.172 C 
ATOM     28  C   UNL     1       5.860  -2.102  25.584  0.00  0.00    +0.202 C 
ATOM     29  C   UNL     1       6.477  -2.736  24.576  0.00  0.00    +0.171 C 
ATOM     30  C   UNL     1       5.718  -3.390  23.627  0.00  0.00    +0.040 C 
BRANCH  26  31
ATOM     31  C   UNL     1       2.272  -2.810  24.820  0.00  0.00    +0.143 C 
ATOM     32  N   UNL     1       1.552  -1.766  24.918  0.00  0.00    -0.085 NA
BRANCH  32  33
ATOM     33  O   UNL     1       0.184  -1.790  25.033  0.00  0.00    -0.409 OA
ATOM     34  H   UNL     1      -0.295  -0.987  25.102  0.00  0.00    +0.328 HD
ENDBRANCH  32  33
ENDBRANCH  26  31
BRANCH  29  35
ATOM     35  O   UNL     1       7.874  -2.746  24.474  0.00  0.00    -0.503 OA
ATOM     36  H   UNL     1       8.394  -2.303  25.116  0.00  0.00    +0.292 HD
ENDBRANCH  29  35
BRANCH  28  37
ATOM     37  O   UNL     1       6.566  -1.413  26.590  0.00  0.00    -0.501 OA
ATOM     38  H   UNL     1       6.099  -0.982  27.279  0.00  0.00    +0.292 HD
ENDBRANCH  28  37
BRANCH  27  39
ATOM     39  O   UNL     1       3.952  -1.435  26.723  0.00  0.00    -0.503 OA
ATOM     40  H   UNL     1       3.026  -1.387  26.856  0.00  0.00    +0.292 HD
ENDBRANCH  27  39
ENDBRANCH   2  25
BRANCH  10  41
ATOM     41  C   UNL     1       2.452  -7.453  21.872  0.00  0.00    +0.217 C 
ATOM     42  O   UNL     1       1.483  -7.844  22.436  0.00  0.00    -0.288 OA
ENDBRANCH  10  41
TORSDOF 8
