REMARK  Name = =
REMARK  9 active torsions:
REMARK  status: ('A' for Active; 'I' for Inactive)
REMARK    1  A    between atoms: C_1  and  N_11
REMARK    2  A    between atoms: C_2  and  C_29
REMARK    3  A    between atoms: C_10  and  C_41
REMARK    4  A    between atoms: C_21  and  C_24
REMARK    5  A    between atoms: C_30  and  C_35
REMARK    6  A    between atoms: C_31  and  O_40
REMARK    7  A    between atoms: C_32  and  O_39
REMARK    8  A    between atoms: C_33  and  O_38
REMARK    9  A    between atoms: N_36  and  O_37
REMARK                            x       y       z     vdW  Elec       q    Type
REMARK                         _______ _______ _______ _____ _____    ______ ____
ROOT
ATOM      1  C   UNL     1       3.147  -3.417  22.735  0.00  0.00    +0.049 C 
ATOM      2  C   UNL     1       4.455  -3.293  22.450  0.00  0.00    -0.005 C 
ATOM      3  C   UNL     1       5.266  -2.258  23.201  0.00  0.00    +0.053 C 
ATOM      4  C   UNL     1       4.807  -2.258  24.623  0.00  0.00    -0.021 C 
ATOM      5  C   UNL     1       3.473  -2.432  24.917  0.00  0.00    -0.013 C 
ATOM      6  C   UNL     1       2.997  -2.475  26.206  0.00  0.00    -0.004 C 
ATOM      7  C   UNL     1       3.874  -2.337  27.285  0.00  0.00    -0.000 C 
ATOM      8  C   UNL     1       5.200  -2.163  27.003  0.00  0.00    -0.000 C 
ATOM      9  C   UNL     1       5.653  -2.126  25.700  0.00  0.00    -0.004 C 
ATOM     10  C   UNL     1       2.538  -2.548  23.796  0.00  0.00    +0.125 C 
ENDROOT
BRANCH   1  11
ATOM     11  N   UNL     1       2.301  -4.336  22.050  0.00  0.00    -0.312 N 
ATOM     12  C   UNL     1       2.090  -5.612  22.355  0.00  0.00    +0.063 A 
ATOM     13  C   UNL     1       1.220  -6.187  21.432  0.00  0.00    +0.013 A 
ATOM     14  C   UNL     1       0.905  -5.190  20.536  0.00  0.00    -0.006 A 
ATOM     15  C   UNL     1       1.568  -4.078  20.927  0.00  0.00    +0.053 A 
ATOM     16  C   UNL     1       1.408  -2.837  20.115  0.00  0.00    +0.113 C 
ATOM     17  N   UNL     1       1.248  -3.054  18.718  0.00  0.00    -0.292 NA
ATOM     18  C   UNL     1       0.819  -4.338  18.294  0.00  0.00    +0.074 C 
ATOM     19  C   UNL     1       0.040  -5.121  19.326  0.00  0.00    +0.045 C 
ATOM     20  C   UNL     1       0.802  -7.479  21.443  0.00  0.00    -0.001 C 
ATOM     21  C   UNL     1       1.256  -8.333  22.442  0.00  0.00    +0.002 C 
ATOM     22  C   UNL     1       2.118  -7.798  23.374  0.00  0.00    -0.001 C 
ATOM     23  C   UNL     1       2.526  -6.486  23.342  0.00  0.00    +0.017 C 
ATOM     24  H   UNL     1       2.150  -2.873  18.277  0.00  0.00    +0.124 HD
BRANCH  21  25
ATOM     25  C   UNL     1       0.826  -9.728  22.458  0.00  0.00    +0.126 C 
ATOM     26  S   UNL     1       2.272 -10.865  22.558  0.00  0.00    -0.119 S 
ATOM     27  C   UNL     1       1.513 -12.070  23.727  0.00  0.00    +0.076 C 
ATOM     28  C   UNL     1       0.068 -11.556  23.665  0.00  0.00    +0.081 C 
ATOM     29  N   UNL     1       0.142 -10.108  23.674  0.00  0.00    -0.286 NA
ATOM     30  H   UNL     1      -0.796  -9.707  23.692  0.00  0.00    +0.124 HD
ENDBRANCH  21  25
ENDBRANCH   1  11
BRANCH   2  31
ATOM     31  C   UNL     1       4.989  -4.125  21.407  0.00  0.00    +0.005 C 
ATOM     32  C   UNL     1       5.821  -5.190  21.610  0.00  0.00    +0.059 C 
ATOM     33  C   UNL     1       6.334  -5.874  20.503  0.00  0.00    +0.172 C 
ATOM     34  C   UNL     1       6.004  -5.485  19.195  0.00  0.00    +0.202 C 
ATOM     35  C   UNL     1       5.174  -4.424  18.986  0.00  0.00    +0.171 C 
ATOM     36  C   UNL     1       4.686  -3.768  20.084  0.00  0.00    +0.040 C 
BRANCH  32  37
ATOM     37  C   UNL     1       6.158  -5.693  22.931  0.00  0.00    +0.143 C 
ATOM     38  N   UNL     1       7.230  -5.362  23.512  0.00  0.00    -0.085 NA
BRANCH  38  39
ATOM     39  O   UNL     1       7.602  -5.797  24.744  0.00  0.00    -0.409 OA
ATOM     40  H   UNL     1       8.413  -5.511  25.117  0.00  0.00    +0.328 HD
ENDBRANCH  38  39
ENDBRANCH  32  37
BRANCH  35  41
ATOM     41  O   UNL     1       4.834  -4.023  17.683  0.00  0.00    -0.503 OA
ATOM     42  H   UNL     1       5.179  -4.486  16.945  0.00  0.00    +0.292 HD
ENDBRANCH  35  41
BRANCH  34  43
ATOM     43  O   UNL     1       6.533  -6.191  18.146  0.00  0.00    -0.501 OA
ATOM     44  H   UNL     1       7.102  -6.917  18.310  0.00  0.00    +0.292 HD
ENDBRANCH  34  43
BRANCH  33  45
ATOM     45  O   UNL     1       7.168  -6.939  20.701  0.00  0.00    -0.503 OA
ATOM     46  H   UNL     1       7.392  -7.203  21.572  0.00  0.00    +0.292 HD
ENDBRANCH  33  45
ENDBRANCH   2  31
BRANCH  10  47
ATOM     47  C   UNL     1       2.177  -1.199  23.277  0.00  0.00    +0.217 C 
ATOM     48  O   UNL     1       1.780  -0.359  24.052  0.00  0.00    -0.288 OA
ENDBRANCH  10  47
TORSDOF 9
