REMARK  Name = =
REMARK  4 active torsions:
REMARK  status: ('A' for Active; 'I' for Inactive)
REMARK    1  A    between atoms: C_1  and  C_8
REMARK    2  A    between atoms: C_1  and  C_23
REMARK    3  A    between atoms: C_23  and  C_37
REMARK    4  A    between atoms: N_39  and  N_42
REMARK                            x       y       z     vdW  Elec       q    Type
REMARK                         _______ _______ _______ _____ _____    ______ ____
ROOT
ATOM      1  C   UNL     1     -25.273 -45.171  27.138  0.00  0.00    +0.133 C 
ATOM      2  N   UNL     1     -24.039 -45.368  27.908  0.00  0.00    -0.267 N 
ATOM      3  C   UNL     1     -23.881 -44.211  28.708  0.00  0.00    +0.402 C 
ATOM      4  O   UNL     1     -23.058 -44.054  29.673  0.00  0.00    -0.226 OA
ATOM      5  O   UNL     1     -24.802 -43.244  28.254  0.00  0.00    -0.433 OA
ATOM      6  C   UNL     1     -25.918 -44.024  27.869  0.00  0.00    +0.231 C 
ATOM      7  H   UNL     1     -23.441 -46.149  27.875  0.00  0.00    +0.153 HD
ENDROOT
BRANCH   1   9
ATOM      8  O   UNL     1     -25.776 -44.771  24.790  0.00  0.00    -0.349 OA
ATOM      9  C   UNL     1     -24.837 -44.701  25.806  0.00  0.00    +0.140 C 
ATOM     10  C   UNL     1     -23.460 -45.103  25.349  0.00  0.00    +0.061 C 
ATOM     11  C   UNL     1     -23.098 -44.057  24.306  0.00  0.00    +0.021 C 
ATOM     12  C   UNL     1     -24.040 -43.855  23.397  0.00  0.00    +0.045 C 
ATOM     13  C   UNL     1     -25.274 -44.654  23.524  0.00  0.00    +0.172 C 
ATOM     14  C   UNL     1     -23.891 -42.895  22.312  0.00  0.00    +0.194 C 
ATOM     15  O   UNL     1     -24.775 -42.692  21.444  0.00  0.00    -0.287 OA
ATOM     16  C   UNL     1     -22.629 -42.149  22.271  0.00  0.00    +0.042 C 
ATOM     17  C   UNL     1     -21.650 -42.362  23.221  0.00  0.00    +0.042 C 
ATOM     18  C   UNL     1     -20.465 -41.662  23.181  0.00  0.00    +0.003 C 
ATOM     19  C   UNL     1     -20.290 -40.746  22.169  0.00  0.00    +0.000 C 
ATOM     20  C   UNL     1     -21.238 -40.503  21.205  0.00  0.00    +0.000 C 
ATOM     21  C   UNL     1     -22.418 -41.215  21.264  0.00  0.00    +0.003 C 
ATOM     22  C   UNL     1     -21.854 -43.347  24.296  0.00  0.00    +0.192 C 
ATOM     23  O   UNL     1     -20.999 -43.578  25.182  0.00  0.00    -0.287 OA
ENDBRANCH   1   9
BRANCH   1  24
ATOM     24  C   UNL     1     -26.113 -46.427  27.210  0.00  0.00    +0.096 C 
ATOM     25  C   UNL     1     -25.258 -47.603  27.518  0.00  0.00    +0.036 C 
ATOM     26  C   UNL     1     -25.492 -48.827  26.719  0.00  0.00    -0.026 C 
ATOM     27  C   UNL     1     -26.635 -49.058  26.008  0.00  0.00    -0.026 C 
ATOM     28  C   UNL     1     -26.815 -50.200  25.303  0.00  0.00    -0.005 C 
ATOM     29  C   UNL     1     -25.808 -51.150  25.309  0.00  0.00    -0.000 C 
ATOM     30  C   UNL     1     -24.629 -50.970  26.011  0.00  0.00    -0.000 C 
ATOM     31  C   UNL     1     -24.500 -49.781  26.714  0.00  0.00    -0.005 C 
ATOM     32  C   UNL     1     -23.627 -51.926  26.010  0.00  0.00    -0.000 C 
ATOM     33  C   UNL     1     -23.851 -53.065  25.285  0.00  0.00    -0.000 C 
ATOM     34  C   UNL     1     -25.012 -53.283  24.573  0.00  0.00    -0.000 C 
ATOM     35  C   UNL     1     -25.988 -52.317  24.591  0.00  0.00    -0.000 C 
ATOM     36  C   UNL     1     -27.648 -47.974  26.049  0.00  0.00    +0.027 C 
ATOM     37  C   UNL     1     -26.832 -46.675  25.895  0.00  0.00    +0.015 C 
BRANCH  24  38
ATOM     38  C   UNL     1     -27.171 -46.155  28.218  0.00  0.00    +0.252 C 
ATOM     39  O   UNL     1     -28.128 -45.388  27.824  0.00  0.00    -0.273 OA
ATOM     40  N   UNL     1     -27.234 -46.635  29.530  0.00  0.00    -0.118 N 
ATOM     41  C   UNL     1     -28.364 -46.222  30.337  0.00  0.00    +0.330 C 
ATOM     42  O   UNL     1     -28.526 -46.590  31.524  0.00  0.00    -0.263 OA
BRANCH  40  43
ATOM     43  N   UNL     1     -26.339 -47.472  30.170  0.00  0.00    -0.165 NA
ATOM     44  C   UNL     1     -25.998 -47.442  31.388  0.00  0.00    +0.141 C 
ENDBRANCH  40  43
ENDBRANCH  24  38
ENDBRANCH   1  24
TORSDOF 4
