MODEL 1
REMARK VINA RESULT:    -9.318      0.000      0.000
REMARK INTER + INTRA:         -13.198
REMARK INTER:                 -11.770
REMARK INTRA:                  -1.428
REMARK UNBOUND:                -1.428
REMARK  Name = =
REMARK  6 active torsions:
REMARK  status: ('A' for Active; 'I' for Inactive)
REMARK    1  A    between atoms: C_1  and  C_22
REMARK    2  A    between atoms: C_2  and  O_45
REMARK    3  A    between atoms: C_6  and  O_44
REMARK    4  A    between atoms: C_12  and  O_43
REMARK    5  A    between atoms: N_21  and  C_25
REMARK    6  A    between atoms: C_24  and  C_42
REMARK                            x       y       z     vdW  Elec       q    Type
REMARK                         _______ _______ _______ _____ _____    ______ ____
ROOT
ATOM      1  C   UNL     1      58.115 161.044  40.848  0.00  0.00    +0.118 C 
ATOM      2  C   UNL     1      57.184 160.521  40.032  0.00  0.00    +0.118 C 
ATOM      3  C   UNL     1      55.749 160.380  40.488  0.00  0.00    +0.065 C 
ATOM      4  C   UNL     1      55.916 159.811  41.916  0.00  0.00    +0.022 C 
ATOM      5  C   UNL     1      56.310 161.084  42.724  0.00  0.00    +0.119 C 
ATOM      6  C   UNL     1      55.188 162.031  42.341  0.00  0.00    +0.117 C 
ATOM      7  C   UNL     1      53.927 161.608  42.448  0.00  0.00    +0.047 C 
ATOM      8  C   UNL     1      53.677 160.252  42.934  0.00  0.00    +0.033 C 
ATOM      9  C   UNL     1      52.325 159.698  42.676  0.00  0.00    +0.031 C 
ATOM     10  C   UNL     1      51.318 160.626  42.179  0.00  0.00    -0.016 C 
ATOM     11  C   UNL     1      51.524 161.959  41.898  0.00  0.00    +0.068 C 
ATOM     12  C   UNL     1      50.497 162.772  41.449  0.00  0.00    +0.136 C 
ATOM     13  C   UNL     1      49.238 162.239  41.275  0.00  0.00    +0.037 C 
ATOM     14  C   UNL     1      49.003 160.902  41.550  0.00  0.00    +0.003 C 
ATOM     15  C   UNL     1      50.044 160.128  41.994  0.00  0.00    -0.004 C 
ATOM     16  C   UNL     1      52.859 162.513  42.025  0.00  0.00    +0.197 C 
ATOM     17  O   UNL     1      53.132 163.712  41.794  0.00  0.00    -0.287 OA
ATOM     18  C   UNL     1      54.678 159.217  42.464  0.00  0.00    +0.006 C 
ATOM     19  C   UNL     1      57.613 161.505  42.148  0.00  0.00    +0.187 C 
ATOM     20  O   UNL     1      58.321 162.295  42.802  0.00  0.00    -0.291 OA
ENDROOT
BRANCH   1  22
ATOM     21  N   UNL     1      60.278 162.324  40.388  0.00  0.00    -0.280 N 
ATOM     22  C   UNL     1      59.464 161.152  40.383  0.00  0.00    +0.255 C 
ATOM     23  O   UNL     1      60.008 160.089  39.915  0.00  0.00    -0.270 OA
ATOM     24  H   UNL     1      59.950 163.194  40.711  0.00  0.00    +0.155 HD
BRANCH  21  26
ATOM     25  C   UNL     1      61.927 162.357  38.608  0.00  0.00    +0.015 C 
ATOM     26  C   UNL     1      61.599 162.141  39.893  0.00  0.00    +0.051 C 
ATOM     27  C   UNL     1      62.563 161.607  40.789  0.00  0.00    +0.013 C 
ATOM     28  C   UNL     1      63.838 161.303  40.344  0.00  0.00    +0.001 C 
ATOM     29  C   UNL     1      64.182 161.522  39.028  0.00  0.00    +0.000 C 
ATOM     30  C   UNL     1      63.236 162.043  38.174  0.00  0.00    +0.001 C 
ATOM     31  C   UNL     1      64.836 160.698  41.253  0.00  0.00    +0.000 C 
ATOM     32  C   UNL     1      64.458 160.663  42.689  0.00  0.00    +0.000 C 
ATOM     33  C   UNL     1      63.080 161.018  43.034  0.00  0.00    +0.000 C 
ATOM     34  C   UNL     1      62.184 161.455  42.182  0.00  0.00    +0.001 C 
BRANCH  25  43
ATOM     35  S   UNL     1      60.493 166.499  36.303  0.00  0.00    -0.065 S 
ATOM     36  C   UNL     1      61.831 166.409  37.645  0.00  0.00    +0.134 C 
ATOM     37  N   UNL     1      61.768 165.229  37.864  0.00  0.00    -0.236 NA
ATOM     38  C   UNL     1      61.027 164.302  37.352  0.00  0.00    +0.088 C 
ATOM     39  C   UNL     1      60.129 164.710  36.368  0.00  0.00    +0.049 C 
ATOM     40  C   UNL     1      59.252 163.902  35.712  0.00  0.00    +0.008 C 
ATOM     41  C   UNL     1      59.223 162.535  36.031  0.00  0.00    +0.001 C 
ATOM     42  C   UNL     1      60.099 162.106  37.000  0.00  0.00    +0.002 C 
ATOM     43  C   UNL     1      60.974 162.908  37.654  0.00  0.00    +0.019 C 
ENDBRANCH  25  43
ENDBRANCH  21  26
ENDBRANCH   1  22
BRANCH  12  44
ATOM     44  O   UNL     1      50.691 164.110  41.167  0.00  0.00    -0.505 OA
ATOM     45  H   UNL     1      50.551 164.755  41.832  0.00  0.00    +0.292 HD
ENDBRANCH  12  44
BRANCH   6  46
ATOM     46  O   UNL     1      55.505 163.292  41.896  0.00  0.00    -0.510 OA
ATOM     47  H   UNL     1      54.853 163.964  41.889  0.00  0.00    +0.292 HD
ENDBRANCH   6  46
BRANCH   2  48
ATOM     48  O   UNL     1      57.571 160.117  38.776  0.00  0.00    -0.510 OA
ATOM     49  H   UNL     1      58.008 159.296  38.661  0.00  0.00    +0.292 HD
ENDBRANCH   2  48
TORSDOF 6
ENDMDL
