REMARK  Name = =
REMARK  3 active torsions:
REMARK  status: ('A' for Active; 'I' for Inactive)
REMARK    1  A    between atoms: S_1  and  S_7
REMARK    2  A    between atoms: S_1  and  C_21
REMARK    3  A    between atoms: C_4  and  N_12
REMARK                            x       y       z     vdW  Elec       q    Type
REMARK                         _______ _______ _______ _____ _____    ______ ____
ROOT
ATOM      1  S   UNL     1       0.141  -3.909  29.628  0.00  0.00    -0.162 S 
ATOM      2  C   UNL     1       0.139  -4.527  28.018  0.00  0.00    +0.054 C 
ATOM      3  C   UNL     1       1.408  -4.423  27.263  0.00  0.00    +0.031 C 
ATOM      4  C   UNL     1       2.079  -3.097  27.246  0.00  0.00    +0.079 C 
ATOM      5  C   UNL     1       1.183  -2.110  27.990  0.00  0.00    +0.031 C 
ATOM      6  C   UNL     1       1.227  -2.604  29.419  0.00  0.00    +0.054 C 
ENDROOT
BRANCH   1   7
ATOM      7  S   UNL     1      -1.612  -3.448  30.236  0.00  0.00    -0.182 S 
ATOM      8  C   UNL     1      -2.523  -2.309  29.241  0.00  0.00    +0.063 C 
ATOM      9  C   UNL     1      -3.883  -2.511  29.829  0.00  0.00    +0.080 C 
ATOM     10  N   UNL     1      -4.090  -3.910  29.945  0.00  0.00    -0.288 NA
ATOM     11  C   UNL     1      -2.862  -4.574  30.313  0.00  0.00    +0.116 C 
ATOM     12  H   UNL     1      -1.119  -3.065  31.444  0.00  0.00    +0.094 HD
ATOM     13  H   UNL     1      -4.415  -4.277  29.050  0.00  0.00    +0.124 HD
ENDBRANCH   1   7
BRANCH   4  14
ATOM     14  N   UNL     1       2.406  -2.602  25.950  0.00  0.00    -0.264 N 
ATOM     15  C   UNL     1       1.639  -2.902  24.749  0.00  0.00    +0.116 C 
ATOM     16  C   UNL     1       1.858  -1.656  23.931  0.00  0.00    +0.112 C 
ATOM     17  N   UNL     1       3.235  -1.317  24.245  0.00  0.00    -0.287 N 
ATOM     18  C   UNL     1       3.475  -1.769  25.579  0.00  0.00    +0.304 C 
ATOM     19  O   UNL     1       4.470  -1.453  26.253  0.00  0.00    -0.253 OA
ATOM     20  H   UNL     1       3.878  -0.864  23.653  0.00  0.00    +0.151 HD
ENDBRANCH   4  14
BRANCH   1  24
ATOM     21  C   UNL     1       1.985  -6.947  32.471  0.00  0.00    +0.000 C 
ATOM     22  C   UNL     1       0.903  -7.319  31.734  0.00  0.00    +0.000 C 
ATOM     23  C   UNL     1       0.334  -6.414  30.838  0.00  0.00    +0.005 C 
ATOM     24  C   UNL     1       0.867  -5.166  30.708  0.00  0.00    +0.016 C 
ATOM     25  C   UNL     1       1.956  -4.831  31.466  0.00  0.00    +0.005 C 
ATOM     26  C   UNL     1       2.548  -5.696  32.364  0.00  0.00    +0.000 C 
ENDBRANCH   1  24
TORSDOF 3
