REMARK  Name = =
REMARK  6 active torsions:
REMARK  status: ('A' for Active; 'I' for Inactive)
REMARK    1  A    between atoms: O_1  and  P_2
REMARK    2  A    between atoms: O_1  and  P_6
REMARK    3  A    between atoms: P_2  and  O_4
REMARK    4  A    between atoms: P_2  and  O_5
REMARK    5  A    between atoms: P_6  and  O_8
REMARK    6  A    between atoms: P_6  and  O_9
REMARK                            x       y       z     vdW  Elec       q    Type
REMARK                         _______ _______ _______ _____ _____    ______ ____
ROOT
ATOM      1  O   UNL     1      -1.562  -2.938  30.609  0.00  0.00    -0.186 OA
ENDROOT
BRANCH   1   2
ATOM      2  P   UNL     1      -3.027  -3.298  29.810  0.00  0.00    +0.481 P 
ATOM      3  O   UNL     1      -3.341  -4.780  29.930  0.00  0.00    -0.227 OA
BRANCH   2   4
ATOM      4  O   UNL     1      -4.291  -2.351  30.426  0.00  0.00    -0.302 OA
ATOM      5  H   UNL     1      -4.427  -2.563  31.363  0.00  0.00    +0.222 HD
ENDBRANCH   2   4
BRANCH   2   6
ATOM      6  O   UNL     1      -2.756  -2.956  28.165  0.00  0.00    -0.302 OA
ATOM      7  H   UNL     1      -3.562  -3.144  27.659  0.00  0.00    +0.222 HD
ENDBRANCH   2   6
ENDBRANCH   1   2
BRANCH   1   8
ATOM      8  P   UNL     1      -0.308  -3.236  29.520  0.00  0.00    +0.481 P 
ATOM      9  O   UNL     1      -0.600  -4.507  28.726  0.00  0.00    -0.227 OA
BRANCH   8  10
ATOM     10  O   UNL     1      -0.111  -1.996  28.409  0.00  0.00    -0.302 OA
ATOM     11  H   UNL     1       0.077  -1.168  28.878  0.00  0.00    +0.222 HD
ENDBRANCH   8  10
BRANCH   8  12
ATOM     12  O   UNL     1       1.112  -3.543  30.396  0.00  0.00    -0.302 OA
ATOM     13  H   UNL     1       0.954  -4.265  31.025  0.00  0.00    +0.222 HD
ENDBRANCH   8  12
ENDBRANCH   1   8
TORSDOF 6
