REMARK  Name = =
REMARK  6 active torsions:
REMARK  status: ('A' for Active; 'I' for Inactive)
REMARK    1  A    between atoms: P_1  and  O_2
REMARK    2  A    between atoms: P_1  and  N_3
REMARK    3  A    between atoms: P_1  and  O_8
REMARK    4  A    between atoms: P_1  and  O_9
REMARK    5  A    between atoms: P_11  and  O_13
REMARK    6  A    between atoms: P_11  and  O_14
REMARK                            x       y       z     vdW  Elec       q    Type
REMARK                         _______ _______ _______ _____ _____    ______ ____
ROOT
ATOM      1  P   UNL     1      -0.677  -3.381  28.701  0.00  0.00    +0.310 P 
ENDROOT
BRANCH   1   2
ATOM      2  N   UNL     1      -2.301  -3.704  29.107  0.00  0.00    -0.201 NA
ATOM      3  C   UNL     1      -2.449  -5.044  29.645  0.00  0.00    +0.081 C 
ATOM      4  C   UNL     1      -3.606  -5.039  30.577  0.00  0.00    +0.019 C 
ATOM      5  C   UNL     1      -4.126  -3.607  30.496  0.00  0.00    +0.019 C 
ATOM      6  C   UNL     1      -2.801  -2.882  30.226  0.00  0.00    +0.081 C 
ENDBRANCH   1   2
BRANCH   1   7
ATOM      7  O   UNL     1      -1.100  -3.022  27.275  0.00  0.00    -0.323 OA
ATOM      8  H   UNL     1      -1.701  -2.261  27.298  0.00  0.00    +0.220 HD
ENDBRANCH   1   7
BRANCH   1   9
ATOM      9  O   UNL     1       0.142  -1.984  28.201  0.00  0.00    -0.323 OA
ATOM     10  H   UNL     1      -0.070  -1.252  28.801  0.00  0.00    +0.220 HD
ENDBRANCH   1   9
BRANCH   1  11
ATOM     11  O   UNL     1      -0.056  -4.316  27.464  0.00  0.00    -0.323 OA
ATOM     12  H   UNL     1      -0.400  -5.220  27.538  0.00  0.00    +0.220 HD
ENDBRANCH   1  11
TORSDOF 4
REMARK  Name = =
REMARK  6 active torsions:
REMARK  status: ('A' for Active; 'I' for Inactive)
REMARK    1  A    between atoms: P_1  and  O_2
REMARK    2  A    between atoms: P_1  and  N_3
REMARK    3  A    between atoms: P_1  and  O_8
REMARK    4  A    between atoms: P_1  and  O_9
REMARK    5  A    between atoms: P_11  and  O_13
REMARK    6  A    between atoms: P_11  and  O_14
REMARK                            x       y       z     vdW  Elec       q    Type
REMARK                         _______ _______ _______ _____ _____    ______ ____
ROOT
ATOM      1  O   UNL     1       0.071  -4.313  29.908  0.00  0.00    -0.116 OA
ATOM      2  P   UNL     1       1.750  -4.268  29.694  0.00  0.00    +0.500 P 
ATOM      3  O   UNL     1       2.238  -5.515  28.981  0.00  0.00    -0.225 OA
ENDROOT
BRANCH   2   4
ATOM      4  O   UNL     1       2.246  -2.895  28.860  0.00  0.00    -0.301 OA
ATOM      5  H   UNL     1       1.930  -2.104  29.323  0.00  0.00    +0.222 HD
ENDBRANCH   2   4
BRANCH   2   6
ATOM      6  O   UNL     1       2.442  -4.285  31.246  0.00  0.00    -0.301 OA
ATOM      7  H   UNL     1       2.152  -5.079  31.721  0.00  0.00    +0.222 HD
ENDBRANCH   2   6
TORSDOF 2
