REMARK  Name = =
REMARK  7 active torsions:
REMARK  status: ('A' for Active; 'I' for Inactive)
REMARK    1  A    between atoms: C_5  and  N_9
REMARK    2  A    between atoms: N_9  and  O_10
REMARK    3  A    between atoms: P_13  and  O_15
REMARK    4  A    between atoms: P_13  and  O_16
REMARK    5  A    between atoms: O_16  and  N_17
REMARK    6  A    between atoms: C_18  and  O_20
REMARK    7  A    between atoms: O_20  and  C_21
REMARK                            x       y       z     vdW  Elec       q    Type
REMARK                         _______ _______ _______ _____ _____    ______ ____
ROOT
ATOM      1  N   UNL     1      -0.597  -4.515  28.815  0.00  0.00    -0.149 N 
ATOM      2  C   UNL     1       0.722  -4.620  28.321  0.00  0.00    +0.429 C 
ATOM      3  O   UNL     1       1.189  -5.746  27.973  0.00  0.00    -0.224 OA
ATOM      4  H   UNL     1      -0.940  -3.631  29.079  0.00  0.00    +0.186 HD
ENDROOT
BRANCH   1   5
ATOM      5  O   UNL     1      -1.401  -5.593  28.935  0.00  0.00    -0.172 OA
BRANCH   5   7
ATOM      6  O   UNL     1      -3.024  -5.765  31.194  0.00  0.00    -0.115 OA
ATOM      7  P   UNL     1      -1.492  -6.056  30.535  0.00  0.00    +0.522 P 
ATOM      8  O   UNL     1      -1.275  -7.571  30.630  0.00  0.00    -0.223 OA
BRANCH   7   9
ATOM      9  O   UNL     1      -0.260  -5.352  31.449  0.00  0.00    -0.300 OA
ATOM     10  H   UNL     1      -0.338  -5.639  32.372  0.00  0.00    +0.222 HD
ENDBRANCH   7   9
ENDBRANCH   5   7
ENDBRANCH   1   5
BRANCH   2  11
ATOM     11  O   UNL     1       1.566  -3.527  28.189  0.00  0.00    -0.409 OA
BRANCH  11  12
ATOM     12  C   UNL     1       2.813  -3.685  27.562  0.00  0.00    +0.150 C 
ATOM     13  C   UNL     1       3.971  -3.938  28.245  0.00  0.00    +0.038 C 
ATOM     14  C   UNL     1       5.169  -4.082  27.548  0.00  0.00    +0.003 C 
ATOM     15  C   UNL     1       5.220  -3.977  26.176  0.00  0.00    +0.000 C 
ATOM     16  C   UNL     1       4.058  -3.724  25.486  0.00  0.00    +0.003 C 
ATOM     17  C   UNL     1       2.860  -3.580  26.190  0.00  0.00    +0.038 C 
ENDBRANCH  11  12
ENDBRANCH   2  11
TORSDOF 5
REMARK  Name = =
REMARK  7 active torsions:
REMARK  status: ('A' for Active; 'I' for Inactive)
REMARK    1  A    between atoms: C_5  and  N_9
REMARK    2  A    between atoms: N_9  and  O_10
REMARK    3  A    between atoms: P_13  and  O_15
REMARK    4  A    between atoms: P_13  and  O_16
REMARK    5  A    between atoms: O_16  and  N_17
REMARK    6  A    between atoms: C_18  and  O_20
REMARK    7  A    between atoms: O_20  and  C_21
REMARK                            x       y       z     vdW  Elec       q    Type
REMARK                         _______ _______ _______ _____ _____    ______ ____
ROOT
ATOM      1  P   UNL     1      -3.596  -4.240  30.758  0.00  0.00    +0.000 P 
ENDROOT
TORSDOF 0
REMARK  Name = =
REMARK  7 active torsions:
REMARK  status: ('A' for Active; 'I' for Inactive)
REMARK    1  A    between atoms: C_5  and  N_9
REMARK    2  A    between atoms: N_9  and  O_10
REMARK    3  A    between atoms: P_13  and  O_15
REMARK    4  A    between atoms: P_13  and  O_16
REMARK    5  A    between atoms: O_16  and  N_17
REMARK    6  A    between atoms: C_18  and  O_20
REMARK    7  A    between atoms: O_20  and  C_21
REMARK                            x       y       z     vdW  Elec       q    Type
REMARK                         _______ _______ _______ _____ _____    ______ ____
ROOT
ATOM      1  O   HOH     1      -4.056  -3.051  29.909  0.00  0.00    -0.253 OA
ATOM      2  H   HOH     0      -3.086  -3.051  29.909  0.00  0.00    +0.253 HD
ENDROOT
TORSDOF 0
REMARK  Name = =
REMARK  7 active torsions:
REMARK  status: ('A' for Active; 'I' for Inactive)
REMARK    1  A    between atoms: C_5  and  N_9
REMARK    2  A    between atoms: N_9  and  O_10
REMARK    3  A    between atoms: P_13  and  O_15
REMARK    4  A    between atoms: P_13  and  O_16
REMARK    5  A    between atoms: O_16  and  N_17
REMARK    6  A    between atoms: C_18  and  O_20
REMARK    7  A    between atoms: O_20  and  C_21
REMARK                            x       y       z     vdW  Elec       q    Type
REMARK                         _______ _______ _______ _____ _____    ______ ____
ROOT
ATOM      1  N   UNL     1      -4.651  -4.407  32.141  0.00  0.00    -0.202 NA
ATOM      2  C   UNL     1      -5.536  -3.268  32.288  0.00  0.00    +0.152 C 
ATOM      3  C   UNL     1      -4.601  -2.172  32.743  0.00  0.00    +0.037 C 
ATOM      4  C   UNL     1      -3.715  -2.894  33.730  0.00  0.00    +0.022 C 
ATOM      5  C   UNL     1      -3.782  -4.316  33.277  0.00  0.00    +0.090 C 
ENDROOT
BRANCH   2   6
ATOM      6  N   UNL     1      -6.442  -3.566  33.381  0.00  0.00    -0.179 NA
ATOM      7  H   UNL     1      -5.917  -3.613  34.254  0.00  0.00    +0.156 HD
BRANCH   6   8
ATOM      8  O   UNL     1      -7.369  -2.603  33.469  0.00  0.00    -0.313 OA
ATOM      9  H   UNL     1      -7.868  -2.558  32.639  0.00  0.00    +0.236 HD
ENDBRANCH   6   8
ENDBRANCH   2   6
TORSDOF 2
REMARK  Name = =
REMARK  7 active torsions:
REMARK  status: ('A' for Active; 'I' for Inactive)
REMARK    1  A    between atoms: C_5  and  N_9
REMARK    2  A    between atoms: N_9  and  O_10
REMARK    3  A    between atoms: P_13  and  O_15
REMARK    4  A    between atoms: P_13  and  O_16
REMARK    5  A    between atoms: O_16  and  N_17
REMARK    6  A    between atoms: C_18  and  O_20
REMARK    7  A    between atoms: O_20  and  C_21
REMARK                            x       y       z     vdW  Elec       q    Type
REMARK                         _______ _______ _______ _____ _____    ______ ____
ROOT
ATOM      1  O   HOH     1      -2.294  -3.221  30.584  0.00  0.00    -0.253 OA
ATOM      2  H   HOH     0      -1.324  -3.221  30.584  0.00  0.00    +0.253 HD
ENDROOT
TORSDOF 0
REMARK  Name = =
REMARK  7 active torsions:
REMARK  status: ('A' for Active; 'I' for Inactive)
REMARK    1  A    between atoms: C_5  and  N_9
REMARK    2  A    between atoms: N_9  and  O_10
REMARK    3  A    between atoms: P_13  and  O_15
REMARK    4  A    between atoms: P_13  and  O_16
REMARK    5  A    between atoms: O_16  and  N_17
REMARK    6  A    between atoms: C_18  and  O_20
REMARK    7  A    between atoms: O_20  and  C_21
REMARK                            x       y       z     vdW  Elec       q    Type
REMARK                         _______ _______ _______ _____ _____    ______ ____
ROOT
ATOM      1  O   HOH     1      -4.019  -4.886  29.298  0.00  0.00    -0.253 OA
ATOM      2  H   HOH     0      -3.049  -4.886  29.298  0.00  0.00    +0.253 HD
ENDROOT
TORSDOF 0
