REMARK  Name = =
REMARK  4 active torsions:
REMARK  status: ('A' for Active; 'I' for Inactive)
REMARK    1  A    between atoms: C_1  and  O_4
REMARK    2  A    between atoms: N_3  and  P_5
REMARK    3  A    between atoms: P_5  and  O_7
REMARK    4  A    between atoms: P_5  and  O_8
REMARK                            x       y       z     vdW  Elec       q    Type
REMARK                         _______ _______ _______ _____ _____    ______ ____
ROOT
ATOM      1  C   UNL     1      -6.249  -1.036  32.085  0.00  0.00    +0.406 C 
ATOM      2  O   UNL     1      -6.599  -0.339  33.096  0.00  0.00    -0.226 OA
ATOM      3  N   UNL     1      -7.237  -1.786  31.432  0.00  0.00    -0.188 N 
ATOM      4  H   UNL     1      -6.980  -2.327  30.651  0.00  0.00    +0.164 HD
ENDROOT
BRANCH   1   5
ATOM      5  O   UNL     1      -4.922  -0.975  31.740  0.00  0.00    -0.466 OA
ATOM      6  H   UNL     1      -4.606  -1.465  31.007  0.00  0.00    +0.297 HD
ENDBRANCH   1   5
BRANCH   3   7
ATOM      7  P   UNL     1      -8.923  -1.799  31.953  0.00  0.00    +0.426 P 
ATOM      8  O   UNL     1      -9.517  -0.408  31.910  0.00  0.00    -0.237 OA
BRANCH   7   9
ATOM      9  O   UNL     1      -9.818  -2.867  30.973  0.00  0.00    -0.310 OA
ATOM     10  H   UNL     1      -9.422  -3.752  31.014  0.00  0.00    +0.221 HD
ENDBRANCH   7   9
BRANCH   7  11
ATOM     11  O   UNL     1      -8.974  -2.407  33.543  0.00  0.00    -0.310 OA
ATOM     12  H   UNL     1      -8.472  -1.820  34.130  0.00  0.00    +0.221 HD
ENDBRANCH   7  11
ENDBRANCH   3   7
TORSDOF 4
