REMARK  Name = =
REMARK  7 active torsions:
REMARK  status: ('A' for Active; 'I' for Inactive)
REMARK    1  A    between atoms: O_1  and  C_2
REMARK    2  A    between atoms: O_1  and  O_9
REMARK    3  A    between atoms: N_4  and  P_5
REMARK    4  A    between atoms: P_5  and  O_7
REMARK    5  A    between atoms: P_5  and  O_8
REMARK    6  A    between atoms: O_9  and  C_10
REMARK    7  A    between atoms: C_14  and  O_18
REMARK                            x       y       z     vdW  Elec       q    Type
REMARK                         _______ _______ _______ _____ _____    ______ ____
ROOT
ATOM      1  O   UNL     1     -14.234  -9.661  22.107  0.00  0.00    -0.226 OA
ENDROOT
BRANCH   1   2
ATOM      2  C   UNL     1     -15.089 -10.655  22.527  0.00  0.00    +0.452 C 
ATOM      3  O   UNL     1     -14.720 -11.383  23.475  0.00  0.00    -0.222 OA
ATOM      4  N   UNL     1     -16.363 -10.901  21.944  0.00  0.00    -0.185 N 
ATOM      5  H   UNL     1     -16.654 -10.332  21.195  0.00  0.00    +0.164 HD
BRANCH   4   6
ATOM      6  P   UNL     1     -17.437 -12.167  22.496  0.00  0.00    +0.426 P 
ATOM      7  O   UNL     1     -18.029 -11.711  23.813  0.00  0.00    -0.237 OA
BRANCH   6   8
ATOM      8  O   UNL     1     -18.693 -12.436  21.399  0.00  0.00    -0.310 OA
ATOM      9  H   UNL     1     -18.324 -12.729  20.551  0.00  0.00    +0.221 HD
ENDBRANCH   6   8
BRANCH   6  10
ATOM     10  O   UNL     1     -16.508 -13.567  22.688  0.00  0.00    -0.310 OA
ATOM     11  H   UNL     1     -15.792 -13.396  23.320  0.00  0.00    +0.221 HD
ENDBRANCH   6  10
ENDBRANCH   4   6
ENDBRANCH   1   2
BRANCH   1  12
ATOM     12  O   UNL     1     -13.347  -9.032  22.951  0.00  0.00    -0.279 OA
BRANCH  12  13
ATOM     13  C   UNL     1     -13.280  -7.656  23.051  0.00  0.00    +0.238 C 
ATOM     14  C   UNL     1     -14.102  -6.899  22.335  0.00  0.00    +0.091 C 
ATOM     15  C   UNL     1     -14.038  -5.445  22.435  0.00  0.00    +0.232 C 
ATOM     16  O   UNL     1     -14.823  -4.763  21.747  0.00  0.00    -0.283 OA
ATOM     17  C   UNL     1     -13.082  -4.776  23.314  0.00  0.00    +0.176 C 
ATOM     18  C   UNL     1     -12.270  -5.560  24.020  0.00  0.00    +0.085 C 
ATOM     19  C   UNL     1     -12.314  -7.017  23.936  0.00  0.00    +0.237 C 
ATOM     20  O   UNL     1     -11.534  -7.742  24.613  0.00  0.00    -0.283 OA
BRANCH  17  21
ATOM     21  O   UNL     1     -13.032  -3.375  23.401  0.00  0.00    -0.503 OA
ATOM     22  H   UNL     1     -13.618  -2.853  22.890  0.00  0.00    +0.292 HD
ENDBRANCH  17  21
ENDBRANCH  12  13
ENDBRANCH   1  12
TORSDOF 7
