REMARK  Name = =
REMARK  9 active torsions:
REMARK  status: ('A' for Active; 'I' for Inactive)
REMARK    1  A    between atoms: C_1  and  O_28
REMARK    2  A    between atoms: C_2  and  N_9
REMARK    3  A    between atoms: C_5  and  O_27
REMARK    4  A    between atoms: N_16  and  C_25
REMARK    5  A    between atoms: O_28  and  O_29
REMARK    6  A    between atoms: O_29  and  C_30
REMARK    7  A    between atoms: N_32  and  P_33
REMARK    8  A    between atoms: P_33  and  O_35
REMARK    9  A    between atoms: P_33  and  O_36
REMARK                            x       y       z     vdW  Elec       q    Type
REMARK                         _______ _______ _______ _____ _____    ______ ____
ROOT
ATOM      1  C   UNL     1     -12.926  -6.568  22.155  0.00  0.00    +0.252 C 
ATOM      2  C   UNL     1     -13.457  -5.354  21.939  0.00  0.00    +0.143 C 
ATOM      3  C   UNL     1     -14.767  -5.142  22.566  0.00  0.00    +0.246 C 
ATOM      4  O   UNL     1     -15.390  -4.073  22.464  0.00  0.00    -0.282 OA
ATOM      5  C   UNL     1     -15.421  -6.207  23.367  0.00  0.00    +0.178 C 
ATOM      6  C   UNL     1     -14.862  -7.382  23.552  0.00  0.00    +0.085 C 
ATOM      7  C   UNL     1     -13.567  -7.610  22.941  0.00  0.00    +0.239 C 
ATOM      8  O   UNL     1     -12.990  -8.726  23.093  0.00  0.00    -0.283 OA
ENDROOT
BRANCH   2   9
ATOM      9  N   UNL     1     -12.700  -4.385  21.285  0.00  0.00    -0.225 N 
ATOM     10  C   UNL     1     -11.767  -3.648  22.099  0.00  0.00    +0.090 C 
ATOM     11  C   UNL     1     -10.510  -3.165  21.749  0.00  0.00    +0.151 C 
ATOM     12  N   UNL     1      -9.783  -2.504  22.631  0.00  0.00    -0.227 NA
ATOM     13  C   UNL     1     -10.257  -2.284  23.892  0.00  0.00    +0.100 C 
ATOM     14  C   UNL     1     -11.500  -2.741  24.285  0.00  0.00    +0.022 C 
ATOM     15  C   UNL     1     -12.261  -3.435  23.362  0.00  0.00    +0.020 C 
ATOM     16  N   UNL     1      -9.915  -3.244  20.436  0.00  0.00    -0.243 N 
ATOM     17  C   UNL     1     -10.605  -3.139  19.196  0.00  0.00    +0.059 C 
ATOM     18  C   UNL     1     -11.934  -3.484  18.948  0.00  0.00    +0.068 C 
ATOM     19  C   UNL     1     -12.470  -3.312  17.704  0.00  0.00    +0.006 C 
ATOM     20  C   UNL     1     -11.701  -2.791  16.663  0.00  0.00    +0.000 C 
ATOM     21  C   UNL     1     -10.397  -2.466  16.963  0.00  0.00    +0.001 C 
ATOM     22  C   UNL     1      -9.824  -2.628  18.209  0.00  0.00    +0.015 C 
ATOM     23  C   UNL     1     -12.920  -4.047  19.917  0.00  0.00    +0.258 C 
ATOM     24  O   UNL     1     -14.008  -4.223  19.444  0.00  0.00    -0.269 OA
BRANCH  16  25
ATOM     25  C   UNL     1      -8.538  -3.410  20.411  0.00  0.00    +0.283 C 
ATOM     26  O   UNL     1      -7.884  -3.432  21.522  0.00  0.00    -0.195 OA
ENDBRANCH  16  25
ENDBRANCH   2   9
BRANCH   5  27
ATOM     27  O   UNL     1     -16.664  -5.969  23.943  0.00  0.00    -0.503 OA
ATOM     28  H   UNL     1     -17.084  -5.139  23.826  0.00  0.00    +0.292 HD
ENDBRANCH   5  27
BRANCH   1  29
ATOM     29  O   UNL     1     -11.671  -6.825  21.567  0.00  0.00    -0.277 OA
BRANCH  29  30
ATOM     30  O   UNL     1     -11.519  -7.726  20.565  0.00  0.00    -0.226 OA
BRANCH  30  31
ATOM     31  C   UNL     1     -10.375  -8.429  20.314  0.00  0.00    +0.452 C 
ATOM     32  O   UNL     1      -9.399  -8.329  21.096  0.00  0.00    -0.222 OA
ATOM     33  N   UNL     1     -10.201  -9.295  19.192  0.00  0.00    -0.185 N 
ATOM     34  H   UNL     1     -10.932  -9.412  18.543  0.00  0.00    +0.164 HD
BRANCH  33  35
ATOM     35  P   UNL     1      -8.679 -10.155  18.968  0.00  0.00    +0.426 P 
ATOM     36  O   UNL     1      -7.568  -9.231  18.543  0.00  0.00    -0.237 OA
BRANCH  35  37
ATOM     37  O   UNL     1      -8.301 -10.905  20.460  0.00  0.00    -0.310 OA
ATOM     38  H   UNL     1      -8.162 -10.225  21.138  0.00  0.00    +0.221 HD
ENDBRANCH  35  37
BRANCH  35  39
ATOM     39  O   UNL     1      -8.906 -11.396  17.845  0.00  0.00    -0.310 OA
ATOM     40  H   UNL     1      -9.625 -11.974  18.143  0.00  0.00    +0.221 HD
ENDBRANCH  35  39
ENDBRANCH  33  35
ENDBRANCH  30  31
ENDBRANCH  29  30
ENDBRANCH   1  29
TORSDOF 9
