MODEL 1
REMARK VINA RESULT:   -12.244      0.000      0.000
REMARK INTER + INTRA:         -18.800
REMARK INTER:                 -18.686
REMARK INTRA:                  -0.114
REMARK UNBOUND:                -0.114
REMARK  Name = =
REMARK  12 active torsions:
REMARK  status: ('A' for Active; 'I' for Inactive)
REMARK    1  A    between atoms: C_1  and  C_3
REMARK    2  A    between atoms: C_1  and  O_19
REMARK    3  A    between atoms: C_4  and  C_12
REMARK    4  A    between atoms: C_5  and  O_11
REMARK    5  A    between atoms: C_6  and  O_10
REMARK    6  A    between atoms: C_7  and  O_9
REMARK    7  A    between atoms: C_13  and  O_14
REMARK    8  A    between atoms: O_14  and  P_15
REMARK    9  A    between atoms: P_15  and  N_17
REMARK   10  A    between atoms: P_15  and  O_18
REMARK   11  A    between atoms: O_19  and  N_20
REMARK   12  A    between atoms: C_31  and  O_38
REMARK                            x       y       z     vdW  Elec       q    Type
REMARK                         _______ _______ _______ _____ _____    ______ ____
ROOT
ATOM      1  C   UNL     1     -12.197 -45.131  28.054  0.00  0.00    +0.360 C 
ATOM      2  O   UNL     1     -11.665 -46.254  27.748  0.00  0.00    -0.243 OA
ENDROOT
BRANCH   1   3
ATOM      3  C   UNL     1     -13.293 -44.501  27.362  0.00  0.00    +0.091 C 
ATOM      4  C   UNL     1     -14.061 -43.536  27.851  0.00  0.00    +0.087 C 
ATOM      5  C   UNL     1     -14.948 -42.764  27.074  0.00  0.00    +0.179 C 
ATOM      6  C   UNL     1     -15.075 -43.001  25.723  0.00  0.00    +0.202 C 
ATOM      7  C   UNL     1     -14.267 -44.057  25.198  0.00  0.00    +0.171 C 
ATOM      8  C   UNL     1     -13.428 -44.747  25.954  0.00  0.00    +0.047 C 
BRANCH   7   9
ATOM      9  O   UNL     1     -14.453 -44.295  23.805  0.00  0.00    -0.503 OA
ATOM     10  H   UNL     1     -15.318 -44.372  23.455  0.00  0.00    +0.292 HD
ENDBRANCH   7   9
BRANCH   6  11
ATOM     11  O   UNL     1     -15.916 -42.308  24.923  0.00  0.00    -0.501 OA
ATOM     12  H   UNL     1     -16.040 -41.390  25.058  0.00  0.00    +0.292 HD
ENDBRANCH   6  11
BRANCH   5  13
ATOM     13  O   UNL     1     -15.651 -41.797  27.765  0.00  0.00    -0.502 OA
ATOM     14  H   UNL     1     -16.019 -41.994  28.603  0.00  0.00    +0.292 HD
ENDBRANCH   5  13
BRANCH   4  15
ATOM     15  C   UNL     1     -14.395 -43.579  29.348  0.00  0.00    -0.031 C 
ATOM     16  C   UNL     1     -14.643 -43.608  30.548  0.00  0.00    +0.069 C 
BRANCH  16  17
ATOM     17  O   UNL     1     -14.910 -43.620  31.796  0.00  0.00    -0.206 OA
BRANCH  17  18
ATOM     18  P   UNL     1     -14.856 -42.198  32.811  0.00  0.00    +0.416 P 
ATOM     19  O   UNL     1     -13.609 -41.362  32.484  0.00  0.00    -0.239 OA
BRANCH  18  20
ATOM     20  N   UNL     1     -16.252 -41.222  32.506  0.00  0.00    -0.236 NA
ATOM     21  H   UNL     1     -17.095 -41.764  32.698  0.00  0.00    +0.130 HD
ATOM     22  H   UNL     1     -16.254 -40.926  31.530  0.00  0.00    +0.130 HD
ENDBRANCH  18  20
BRANCH  18  23
ATOM     23  O   UNL     1     -14.790 -42.611  34.442  0.00  0.00    -0.312 OA
ATOM     24  H   UNL     1     -14.653 -41.810  34.972  0.00  0.00    +0.221 HD
ENDBRANCH  18  23
ENDBRANCH  17  18
ENDBRANCH  16  17
ENDBRANCH   4  15
ENDBRANCH   1   3
BRANCH   1  25
ATOM     25  O   UNL     1     -11.646 -44.465  29.194  0.00  0.00    -0.361 OA
BRANCH  25  26
ATOM     26  N   UNL     1     -10.440 -44.729  29.684  0.00  0.00    -0.118 NA
ATOM     27  C   UNL     1     -10.548 -44.569  31.193  0.00  0.00    +0.104 C 
ATOM     28  C   UNL     1      -9.217 -44.844  31.768  0.00  0.00    +0.047 C 
ATOM     29  C   UNL     1      -8.463 -43.513  31.618  0.00  0.00    +0.065 C 
ATOM     30  C   UNL     1      -7.084 -43.459  32.084  0.00  0.00    +0.174 C 
ATOM     31  O   UNL     1      -7.124 -43.061  33.477  0.00  0.00    -0.476 OA
ATOM     32  C   UNL     1      -8.263 -42.485  33.729  0.00  0.00    +0.168 C 
ATOM     33  C   UNL     1      -9.247 -42.736  32.641  0.00  0.00    +0.014 C 
ATOM     34  C   UNL     1     -10.358 -42.411  32.511  0.00  0.00    -0.021 C 
ATOM     35  C   UNL     1     -11.200 -41.580  33.384  0.00  0.00    -0.001 C 
ATOM     36  C   UNL     1     -10.297 -41.260  34.531  0.00  0.00    +0.039 C 
ATOM     37  C   UNL     1      -9.114 -41.676  34.587  0.00  0.00    +0.167 C 
ATOM     38  C   UNL     1     -11.197 -43.250  31.465  0.00  0.00    +0.046 C 
ATOM     39  C   UNL     1      -6.322 -44.754  31.980  0.00  0.00    +0.070 C 
ATOM     40  C   UNL     1      -7.060 -45.790  31.284  0.00  0.00    -0.027 C 
ATOM     41  C   UNL     1      -8.392 -45.902  31.133  0.00  0.00    -0.029 C 
ATOM     42  C   UNL     1      -8.738 -43.002  30.222  0.00  0.00    +0.029 C 
ATOM     43  C   UNL     1      -9.284 -44.041  29.259  0.00  0.00    +0.114 C 
BRANCH  37  44
ATOM     44  O   UNL     1      -8.319 -41.330  35.762  0.00  0.00    -0.503 OA
ATOM     45  H   UNL     1      -7.603 -41.875  36.020  0.00  0.00    +0.292 HD
ENDBRANCH  37  44
ENDBRANCH  25  26
ENDBRANCH   1  25
TORSDOF 12
ENDMDL
