MODEL 1
REMARK VINA RESULT:    -8.582      0.000      0.000
REMARK INTER + INTRA:         -14.470
REMARK INTER:                 -13.348
REMARK INTRA:                  -1.122
REMARK UNBOUND:                -1.122
REMARK  Name = =
REMARK  10 active torsions:
REMARK  status: ('A' for Active; 'I' for Inactive)
REMARK    1  A    between atoms: C_1  and  C_16
REMARK    2  A    between atoms: C_4  and  N_7
REMARK    3  A    between atoms: C_6  and  C_17
REMARK    4  A    between atoms: C_10  and  C_13
REMARK    5  A    between atoms: C_13  and  N_14
REMARK    6  A    between atoms: N_18  and  N_19
REMARK    7  A    between atoms: N_19  and  N_20
REMARK    8  A    between atoms: N_20  and  C_21
REMARK    9  A    between atoms: C_22  and  C_23
REMARK   10  A    between atoms: C_22  and  C_25
REMARK                            x       y       z     vdW  Elec       q    Type
REMARK                         _______ _______ _______ _____ _____    ______ ____
ROOT
ATOM      1  C   UNL     1      51.988 154.780  28.077  0.00  0.00    +0.044 C 
ATOM      2  C   UNL     1      51.378 154.906  29.301  0.00  0.00    +0.005 C 
ATOM      3  C   UNL     1      51.200 156.127  29.892  0.00  0.00    +0.015 C 
ATOM      4  C   UNL     1      51.649 157.283  29.249  0.00  0.00    +0.054 C 
ATOM      5  C   UNL     1      52.265 157.133  28.026  0.00  0.00    +0.017 C 
ATOM      6  C   UNL     1      52.452 155.941  27.407  0.00  0.00    +0.025 C 
ENDROOT
BRANCH   4   7
ATOM      7  N   UNL     1      51.309 158.538  29.851  0.00  0.00    -0.259 N 
ATOM      8  C   UNL     1      52.259 159.575  30.236  0.00  0.00    +0.099 C 
ATOM      9  C   UNL     1      51.415 160.687  30.809  0.00  0.00    +0.032 C 
ATOM     10  C   UNL     1      50.082 160.446  30.162  0.00  0.00    +0.094 C 
ATOM     11  C   UNL     1      50.004 158.956  30.247  0.00  0.00    +0.230 C 
ATOM     12  O   UNL     1      49.034 158.234  30.585  0.00  0.00    -0.274 OA
BRANCH  10  13
ATOM     13  C   UNL     1      48.941 161.174  30.735  0.00  0.00    +0.074 C 
BRANCH  13  14
ATOM     14  N   UNL     1      48.489 160.753  32.015  0.00  0.00    -0.321 NA
ATOM     15  H   UNL     1      48.809 159.801  32.192  0.00  0.00    +0.119 HD
ATOM     16  H   UNL     1      47.470 160.780  32.041  0.00  0.00    +0.119 HD
ENDBRANCH  13  14
ENDBRANCH  10  13
ENDBRANCH   4   7
BRANCH   1  18
ATOM     17  O   UNL     1      53.070 152.734  27.959  0.00  0.00    -0.283 OA
ATOM     18  C   UNL     1      52.239 153.501  27.466  0.00  0.00    +0.234 C 
ENDBRANCH   1  18
BRANCH   6  19
ATOM     19  C   UNL     1      52.846 155.795  26.018  0.00  0.00    +0.121 C 
ATOM     20  N   UNL     1      54.213 155.322  25.752  0.00  0.00    -0.142 NA
BRANCH  20  21
ATOM     21  N   UNL     1      54.564 155.260  24.513  0.00  0.00    -0.048 NA
BRANCH  21  22
ATOM     22  N   UNL     1      54.870 154.073  23.871  0.00  0.00    -0.226 N 
ATOM     23  H   UNL     1      55.616 154.103  23.229  0.00  0.00    +0.174 HD
BRANCH  22  24
ATOM     24  C   UNL     1      54.243 152.840  24.032  0.00  0.00    +0.082 C 
ATOM     25  C   UNL     1      54.582 151.887  24.858  0.00  0.00    +0.058 C 
BRANCH  25  26
ATOM     26  C   UNL     1      53.760 150.657  24.858  0.00  0.00    +0.005 C 
ATOM     27  C   UNL     1      54.189 149.457  24.671  0.00  0.00    +0.000 C 
ENDBRANCH  25  26
BRANCH  25  28
ATOM     28  C   UNL     1      55.675 152.080  25.769  0.00  0.00    +0.235 C 
ATOM     29  O   UNL     1      56.753 152.586  25.444  0.00  0.00    -0.283 OA
ENDBRANCH  25  28
ENDBRANCH  22  24
ENDBRANCH  21  22
ENDBRANCH  20  21
ENDBRANCH   6  19
TORSDOF 10
ENDMDL
