REMARK  Name = =
REMARK  0 active torsions:
REMARK  status: ('A' for Active; 'I' for Inactive)
REMARK                            x       y       z     vdW  Elec       q    Type
REMARK                         _______ _______ _______ _____ _____    ______ ____
ROOT
ATOM      1  C   UNL     1      -4.280  -4.104  30.703  0.00  0.00    +0.120 C 
ATOM      2  N   UNL     1      -3.446  -5.126  30.439  0.00  0.00    -0.239 NA
ATOM      3  C   UNL     1      -2.159  -4.883  30.124  0.00  0.00    +0.120 C 
ATOM      4  C   UNL     1      -1.757  -3.564  30.089  0.00  0.00    +0.120 C 
ATOM      5  N   UNL     1      -2.590  -2.545  30.353  0.00  0.00    -0.239 NA
ATOM      6  C   UNL     1      -3.878  -2.784  30.668  0.00  0.00    +0.120 C 
ENDROOT
TORSDOF 0
