REMARK  Name = =
REMARK  1 active torsions:
REMARK  status: ('A' for Active; 'I' for Inactive)
REMARK    1  A    between atoms: C_8  and  C_10
REMARK                            x       y       z     vdW  Elec       q    Type
REMARK                         _______ _______ _______ _____ _____    ______ ____
ROOT
ATOM      1  C   UNL     1      -8.443  -0.910  31.023  0.00  0.00    +0.154 C 
ATOM      2  N   UNL     1      -7.901  -2.150  31.097  0.00  0.00    -0.226 NA
ATOM      3  C   UNL     1      -6.861  -2.445  31.868  0.00  0.00    +0.121 C 
ATOM      4  C   UNL     1      -6.289  -1.451  32.638  0.00  0.00    +0.120 C 
ATOM      5  N   UNL     1      -6.812  -0.216  32.580  0.00  0.00    -0.238 NA
ATOM      6  C   UNL     1      -7.880   0.073  31.785  0.00  0.00    +0.133 C 
ATOM      7  N   UNL     1      -9.553  -0.764  30.149  0.00  0.00    -0.265 N 
ATOM      8  C   UNL     1     -10.285   0.402  29.898  0.00  0.00    +0.252 C 
ATOM      9  O   UNL     1      -9.964   1.461  30.480  0.00  0.00    -0.270 OA
ATOM     10  H   UNL     1      -9.839  -1.573  29.666  0.00  0.00    +0.157 HD
ENDROOT
BRANCH   8  11
ATOM     11  C   UNL     1     -11.434   0.464  28.966  0.00  0.00    +0.073 C 
ATOM     12  C   UNL     1     -11.683   1.621  28.255  0.00  0.00    +0.103 C 
ATOM     13  N   UNL     1     -12.726   1.729  27.393  0.00  0.00    -0.242 NA
ATOM     14  C   UNL     1     -13.545   0.676  27.224  0.00  0.00    +0.099 C 
ATOM     15  C   UNL     1     -13.371  -0.515  27.892  0.00  0.00    +0.021 C 
ATOM     16  C   UNL     1     -12.282  -0.589  28.776  0.00  0.00    +0.008 C 
ENDBRANCH   8  11
TORSDOF 1
