REMARK  Name = =
REMARK  2 active torsions:
REMARK  status: ('A' for Active; 'I' for Inactive)
REMARK    1  A    between atoms: C_5  and  C_14
REMARK    2  A    between atoms: C_6  and  N_7
REMARK                            x       y       z     vdW  Elec       q    Type
REMARK                         _______ _______ _______ _____ _____    ______ ____
ROOT
ATOM      1  N   UNL     1      -2.248  -5.771  33.156  0.00  0.00    -0.196 NA
ATOM      2  C   UNL     1      -3.622  -6.157  33.408  0.00  0.00    +0.095 C 
ATOM      3  C   UNL     1      -4.283  -6.775  32.223  0.00  0.00    +0.045 C 
ATOM      4  C   UNL     1      -3.349  -7.553  31.391  0.00  0.00    -0.025 C 
ATOM      5  C   UNL     1      -2.040  -7.631  31.588  0.00  0.00    +0.042 C 
ATOM      6  C   UNL     1      -1.437  -6.889  32.723  0.00  0.00    +0.178 C 
ENDROOT
BRANCH   6   7
ATOM      7  N   UNL     1      -0.172  -6.362  32.286  0.00  0.00    -0.237 N 
ATOM      8  C   UNL     1       0.969  -6.772  32.849  0.00  0.00    +0.069 C 
ATOM      9  C   UNL     1       2.192  -6.247  32.410  0.00  0.00    +0.016 C 
ATOM     10  C   UNL     1       2.235  -5.315  31.411  0.00  0.00    +0.006 C 
ATOM     11  C   UNL     1       1.054  -4.906  30.846  0.00  0.00    +0.058 C 
ATOM     12  C   UNL     1      -0.154  -5.451  31.307  0.00  0.00    +0.254 C 
ATOM     13  O   UNL     1      -1.192  -5.025  30.738  0.00  0.00    -0.270 OA
ENDBRANCH   6   7
BRANCH   5  14
ATOM     14  C   UNL     1      -1.130  -8.431  30.722  0.00  0.00    +0.259 C 
ATOM     15  O   UNL     1      -1.835  -9.124  29.737  0.00  0.00    -0.325 OA
ATOM     16  C   UNL     1      -0.796  -9.646  28.966  0.00  0.00    +0.177 C 
ATOM     17  C   UNL     1       0.271  -8.575  29.086  0.00  0.00    +0.177 C 
ATOM     18  O   UNL     1      -0.299  -7.618  29.953  0.00  0.00    -0.325 OA
ENDBRANCH   5  14
TORSDOF 2
