REMARK  Name = =
REMARK  2 active torsions:
REMARK  status: ('A' for Active; 'I' for Inactive)
REMARK    1  A    between atoms: C_1  and  C_28
REMARK    2  A    between atoms: C_5  and  C_7
REMARK                            x       y       z     vdW  Elec       q    Type
REMARK                         _______ _______ _______ _____ _____    ______ ____
ROOT
ATOM      1  C   UNL     1     -11.421   0.932  28.824  0.00  0.00    +0.073 C 
ATOM      2  C   UNL     1     -12.069   2.139  28.628  0.00  0.00    +0.103 C 
ATOM      3  N   UNL     1     -13.069   2.278  27.740  0.00  0.00    -0.242 NA
ATOM      4  C   UNL     1     -13.437   1.197  27.030  0.00  0.00    +0.095 C 
ATOM      5  C   UNL     1     -12.835  -0.025  27.179  0.00  0.00    -0.003 C 
ATOM      6  C   UNL     1     -11.805  -0.156  28.096  0.00  0.00    +0.003 C 
ENDROOT
BRANCH   5   7
ATOM      7  C   UNL     1     -13.213  -1.240  26.416  0.00  0.00    +0.024 C 
ATOM      8  C   UNL     1     -12.114  -2.239  26.578  0.00  0.00    +0.004 C 
ATOM      9  C   UNL     1     -11.925  -3.157  25.412  0.00  0.00    +0.000 C 
ATOM     10  C   UNL     1     -11.459  -2.497  24.165  0.00  0.00    +0.000 C 
ATOM     11  C   UNL     1     -12.310  -2.992  22.992  0.00  0.00    +0.000 C 
ATOM     12  C   UNL     1     -12.175  -4.494  22.874  0.00  0.00    +0.000 C 
ATOM     13  C   UNL     1     -13.367  -5.036  22.104  0.00  0.00    +0.003 C 
ATOM     14  C   UNL     1     -13.857  -6.336  22.650  0.00  0.00    +0.032 C 
ATOM     15  C   UNL     1     -15.097  -6.190  23.502  0.00  0.00    +0.142 C 
ATOM     16  O   UNL     1     -14.870  -5.549  24.698  0.00  0.00    -0.354 OA
ATOM     17  C   UNL     1     -15.864  -4.591  24.916  0.00  0.00    +0.142 C 
ATOM     18  C   UNL     1     -15.643  -3.797  26.163  0.00  0.00    +0.032 C 
ATOM     19  C   UNL     1     -15.390  -2.325  25.867  0.00  0.00    +0.003 C 
ATOM     20  C   UNL     1     -14.535  -1.721  26.978  0.00  0.00    +0.004 C 
ENDBRANCH   5   7
BRANCH   1  28
ATOM     21  C   UNL     1      -8.531  -0.518  30.949  0.00  0.00    +0.154 C 
ATOM     22  N   UNL     1      -7.947  -1.754  31.013  0.00  0.00    -0.226 NA
ATOM     23  C   UNL     1      -6.937  -2.048  31.838  0.00  0.00    +0.121 C 
ATOM     24  C   UNL     1      -6.426  -1.091  32.682  0.00  0.00    +0.120 C 
ATOM     25  N   UNL     1      -6.972   0.120  32.641  0.00  0.00    -0.238 NA
ATOM     26  C   UNL     1      -8.008   0.417  31.795  0.00  0.00    +0.133 C 
ATOM     27  N   UNL     1      -9.595  -0.329  30.033  0.00  0.00    -0.265 N 
ATOM     28  C   UNL     1     -10.326   0.845  29.807  0.00  0.00    +0.252 C 
ATOM     29  O   UNL     1     -10.042   1.868  30.468  0.00  0.00    -0.270 OA
ATOM     30  H   UNL     1      -9.850  -1.112  29.493  0.00  0.00    +0.157 HD
ENDBRANCH   1  28
TORSDOF 2
