REMARK  Name = =
REMARK  5 active torsions:
REMARK  status: ('A' for Active; 'I' for Inactive)
REMARK    1  A    between atoms: C_1  and  C_19
REMARK    2  A    between atoms: C_11  and  O_30
REMARK    3  A    between atoms: C_15  and  C_28
REMARK    4  A    between atoms: O_30  and  C_31
REMARK    5  A    between atoms: C_31  and  N_33
REMARK                            x       y       z     vdW  Elec       q    Type
REMARK                         _______ _______ _______ _____ _____    ______ ____
ROOT
ATOM      1  C   UNL     1     -12.661  -1.386  25.758  0.00  0.00    +0.024 C 
ATOM      2  C   UNL     1     -13.812  -0.867  24.922  0.00  0.00    +0.004 C 
ATOM      3  C   UNL     1     -15.137  -0.977  25.648  0.00  0.00    +0.000 C 
ATOM      4  C   UNL     1     -15.140   0.057  26.748  0.00  0.00    +0.000 C 
ATOM      5  C   UNL     1     -16.502   0.178  27.399  0.00  0.00    +0.000 C 
ATOM      6  C   UNL     1     -16.430   1.282  28.431  0.00  0.00    +0.000 C 
ATOM      7  C   UNL     1     -15.039   1.275  29.004  0.00  0.00    +0.003 C 
ATOM      8  C   UNL     1     -14.909   2.257  30.167  0.00  0.00    +0.032 C 
ATOM      9  C   UNL     1     -13.401   2.324  30.449  0.00  0.00    +0.146 C 
ATOM     10  O   UNL     1     -12.775   2.355  29.219  0.00  0.00    -0.321 OA
ATOM     11  C   UNL     1     -11.811   1.350  29.087  0.00  0.00    +0.289 C 
ATOM     12  C   UNL     1     -11.392   1.258  27.633  0.00  0.00    +0.076 C 
ATOM     13  C   UNL     1     -11.045  -0.135  27.212  0.00  0.00    +0.007 C 
ATOM     14  C   UNL     1     -11.525  -0.378  25.809  0.00  0.00    +0.005 C 
ENDROOT
BRANCH   1  19
ATOM     15  C   UNL     1     -11.521  -4.133  23.437  0.00  0.00    +0.073 C 
ATOM     16  C   UNL     1     -11.292  -5.140  24.352  0.00  0.00    +0.103 C 
ATOM     17  N   UNL     1     -11.489  -4.965  25.668  0.00  0.00    -0.242 NA
ATOM     18  C   UNL     1     -11.923  -3.771  26.108  0.00  0.00    +0.095 C 
ATOM     19  C   UNL     1     -12.178  -2.712  25.267  0.00  0.00    -0.003 C 
ATOM     20  C   UNL     1     -11.963  -2.920  23.898  0.00  0.00    +0.003 C 
BRANCH  15  28
ATOM     21  C   UNL     1     -11.424  -3.573  19.615  0.00  0.00    +0.154 C 
ATOM     22  N   UNL     1     -11.809  -2.538  18.799  0.00  0.00    -0.226 NA
ATOM     23  C   UNL     1     -11.664  -2.596  17.477  0.00  0.00    +0.121 C 
ATOM     24  C   UNL     1     -11.116  -3.712  16.890  0.00  0.00    +0.120 C 
ATOM     25  N   UNL     1     -10.722  -4.749  17.633  0.00  0.00    -0.238 NA
ATOM     26  C   UNL     1     -10.886  -4.656  18.990  0.00  0.00    +0.133 C 
ATOM     27  N   UNL     1     -11.613  -3.429  21.012  0.00  0.00    -0.265 N 
ATOM     28  C   UNL     1     -11.288  -4.365  22.001  0.00  0.00    +0.252 C 
ATOM     29  O   UNL     1     -10.772  -5.462  21.681  0.00  0.00    -0.270 OA
ATOM     30  H   UNL     1     -12.014  -2.584  21.319  0.00  0.00    +0.157 HD
ENDBRANCH  15  28
ENDBRANCH   1  19
BRANCH  11  31
ATOM     31  O   UNL     1     -10.676   1.789  29.817  0.00  0.00    -0.434 OA
BRANCH  31  32
ATOM     32  C   UNL     1      -9.532   1.071  29.994  0.00  0.00    +0.228 C 
ATOM     33  S   UNL     1      -9.585  -0.394  30.692  0.00  0.00    +0.006 S 
BRANCH  32  34
ATOM     34  N   UNL     1      -8.287   1.587  29.576  0.00  0.00    -0.323 N 
ATOM     35  H   UNL     1      -8.239   2.474  29.151  0.00  0.00    +0.146 HD
ATOM     36  H   UNL     1      -7.466   1.060  29.709  0.00  0.00    +0.146 HD
ENDBRANCH  32  34
ENDBRANCH  31  32
ENDBRANCH  11  31
TORSDOF 5
