REMARK  Name = =
REMARK  6 active torsions:
REMARK  status: ('A' for Active; 'I' for Inactive)
REMARK    1  A    between atoms: C_1  and  C_19
REMARK    2  A    between atoms: C_1  and  C_30
REMARK    3  A    between atoms: C_11  and  O_33
REMARK    4  A    between atoms: C_15  and  C_28
REMARK    5  A    between atoms: O_33  and  C_34
REMARK    6  A    between atoms: C_34  and  N_36
REMARK                            x       y       z     vdW  Elec       q    Type
REMARK                         _______ _______ _______ _____ _____    ______ ____
ROOT
ATOM      1  C   UNL     1     -11.701  -1.668  23.992  0.00  0.00    +0.020 C 
ATOM      2  C   UNL     1     -10.915  -2.695  23.308  0.00  0.00    +0.004 C 
ATOM      3  C   UNL     1     -10.724  -2.746  21.857  0.00  0.00    +0.000 C 
ATOM      4  C   UNL     1     -10.545  -1.503  21.095  0.00  0.00    +0.000 C 
ATOM      5  C   UNL     1     -10.099  -1.914  19.675  0.00  0.00    +0.000 C 
ATOM      6  C   UNL     1      -9.283  -0.804  19.048  0.00  0.00    +0.000 C 
ATOM      7  C   UNL     1     -10.196   0.290  18.580  0.00  0.00    +0.003 C 
ATOM      8  C   UNL     1      -9.814   1.611  19.202  0.00  0.00    +0.032 C 
ATOM      9  C   UNL     1     -11.022   2.335  19.782  0.00  0.00    +0.146 C 
ATOM     10  O   UNL     1     -10.698   3.062  20.906  0.00  0.00    -0.321 OA
ATOM     11  C   UNL     1     -11.549   2.794  22.000  0.00  0.00    +0.289 C 
ATOM     12  C   UNL     1     -10.809   1.832  22.883  0.00  0.00    +0.076 C 
ATOM     13  C   UNL     1     -11.761   0.789  23.417  0.00  0.00    +0.007 C 
ATOM     14  C   UNL     1     -11.002  -0.317  24.114  0.00  0.00    +0.004 C 
ENDROOT
BRANCH   1  19
ATOM     15  C   UNL     1     -12.399  -1.867  27.724  0.00  0.00    +0.073 C 
ATOM     16  C   UNL     1     -11.837  -3.065  28.021  0.00  0.00    +0.103 C 
ATOM     17  N   UNL     1     -11.259  -3.788  27.051  0.00  0.00    -0.242 NA
ATOM     18  C   UNL     1     -11.211  -3.365  25.767  0.00  0.00    +0.095 C 
ATOM     19  C   UNL     1     -11.775  -2.150  25.439  0.00  0.00    -0.003 C 
ATOM     20  C   UNL     1     -12.362  -1.411  26.414  0.00  0.00    +0.003 C 
BRANCH  15  28
ATOM     21  C   UNL     1     -14.210  -0.808  30.968  0.00  0.00    +0.154 C 
ATOM     22  N   UNL     1     -14.613  -1.480  32.092  0.00  0.00    -0.226 NA
ATOM     23  C   UNL     1     -15.239  -0.871  33.097  0.00  0.00    +0.121 C 
ATOM     24  C   UNL     1     -15.503   0.470  33.032  0.00  0.00    +0.120 C 
ATOM     25  N   UNL     1     -15.118   1.150  31.942  0.00  0.00    -0.238 NA
ATOM     26  C   UNL     1     -14.471   0.528  30.903  0.00  0.00    +0.133 C 
ATOM     27  N   UNL     1     -13.552  -1.522  29.935  0.00  0.00    -0.265 N 
ATOM     28  C   UNL     1     -13.062  -1.014  28.731  0.00  0.00    +0.252 C 
ATOM     29  O   UNL     1     -13.180   0.201  28.487  0.00  0.00    -0.270 OA
ATOM     30  H   UNL     1     -13.426  -2.487  30.084  0.00  0.00    +0.157 HD
ENDBRANCH  15  28
ENDBRANCH   1  19
BRANCH   1  31
ATOM     31  C   UNL     1     -13.088  -1.428  23.557  0.00  0.00    +0.004 C 
ATOM     32  C   UNL     1     -14.048  -2.604  23.774  0.00  0.00    +0.000 C 
ATOM     33  C   UNL     1     -13.844  -1.955  22.453  0.00  0.00    +0.000 C 
ENDBRANCH   1  31
BRANCH  11  34
ATOM     34  O   UNL     1     -11.747   3.989  22.683  0.00  0.00    -0.434 OA
BRANCH  34  35
ATOM     35  C   UNL     1     -12.749   4.902  22.527  0.00  0.00    +0.228 C 
ATOM     36  S   UNL     1     -14.220   4.563  21.877  0.00  0.00    +0.006 S 
BRANCH  35  37
ATOM     37  N   UNL     1     -12.485   6.238  22.964  0.00  0.00    -0.323 N 
ATOM     38  H   UNL     1     -11.611   6.464  23.356  0.00  0.00    +0.146 HD
ATOM     39  H   UNL     1     -13.177   6.932  22.872  0.00  0.00    +0.146 HD
ENDBRANCH  35  37
ENDBRANCH  34  35
ENDBRANCH  11  34
TORSDOF 6
