REMARK  Name = =
REMARK  7 active torsions:
REMARK  status: ('A' for Active; 'I' for Inactive)
REMARK    1  A    between atoms: C_1  and  C_19
REMARK    2  A    between atoms: C_1  and  C_35
REMARK    3  A    between atoms: C_6  and  C_30
REMARK    4  A    between atoms: C_11  and  O_38
REMARK    5  A    between atoms: C_15  and  C_28
REMARK    6  A    between atoms: O_38  and  C_39
REMARK    7  A    between atoms: C_39  and  N_41
REMARK                            x       y       z     vdW  Elec       q    Type
REMARK                         _______ _______ _______ _____ _____    ______ ____
ROOT
ATOM      1  C   UNL     1     -12.642  -1.811  25.544  0.00  0.00    +0.020 C 
ATOM      2  C   UNL     1     -11.306  -2.133  26.285  0.00  0.00    +0.004 C 
ATOM      3  C   UNL     1     -10.482  -0.949  26.585  0.00  0.00    +0.000 C 
ATOM      4  C   UNL     1     -10.069  -0.829  28.043  0.00  0.00    +0.000 C 
ATOM      5  C   UNL     1      -9.473   0.524  28.375  0.00  0.00    +0.001 C 
ATOM      6  C   UNL     1      -9.905   1.072  29.683  0.00  0.00    +0.017 C 
ATOM      7  C   UNL     1     -10.761   2.349  29.576  0.00  0.00    +0.004 C 
ATOM      8  C   UNL     1     -11.942   1.890  28.755  0.00  0.00    +0.032 C 
ATOM      9  C   UNL     1     -13.142   2.724  28.695  0.00  0.00    +0.146 C 
ATOM     10  O   UNL     1     -14.340   2.059  28.901  0.00  0.00    -0.321 OA
ATOM     11  C   UNL     1     -14.885   1.477  27.729  0.00  0.00    +0.289 C 
ATOM     12  C   UNL     1     -14.242   0.187  27.563  0.00  0.00    +0.076 C 
ATOM     13  C   UNL     1     -14.800  -0.876  26.681  0.00  0.00    +0.007 C 
ATOM     14  C   UNL     1     -13.730  -1.882  26.467  0.00  0.00    +0.004 C 
ENDROOT
BRANCH   1  19
ATOM     15  C   UNL     1     -10.455   0.162  23.330  0.00  0.00    +0.073 C 
ATOM     16  C   UNL     1     -11.265   1.156  22.826  0.00  0.00    +0.103 C 
ATOM     17  N   UNL     1     -12.539   1.150  23.227  0.00  0.00    -0.242 NA
ATOM     18  C   UNL     1     -13.029   0.230  24.078  0.00  0.00    +0.095 C 
ATOM     19  C   UNL     1     -12.306  -0.778  24.621  0.00  0.00    -0.003 C 
ATOM     20  C   UNL     1     -10.953  -0.779  24.200  0.00  0.00    +0.003 C 
BRANCH  15  28
ATOM     21  C   UNL     1      -7.087  -1.208  22.248  0.00  0.00    +0.154 C 
ATOM     22  N   UNL     1      -6.387  -0.079  22.020  0.00  0.00    -0.226 NA
ATOM     23  C   UNL     1      -5.117  -0.159  21.584  0.00  0.00    +0.121 C 
ATOM     24  C   UNL     1      -4.515  -1.375  21.365  0.00  0.00    +0.120 C 
ATOM     25  N   UNL     1      -5.200  -2.500  21.588  0.00  0.00    -0.238 NA
ATOM     26  C   UNL     1      -6.476  -2.402  22.026  0.00  0.00    +0.133 C 
ATOM     27  N   UNL     1      -8.439  -1.113  22.694  0.00  0.00    -0.265 N 
ATOM     28  C   UNL     1      -9.053   0.153  22.893  0.00  0.00    +0.252 C 
ATOM     29  O   UNL     1      -8.379   1.184  22.683  0.00  0.00    -0.270 OA
ATOM     30  H   UNL     1      -8.953  -1.935  22.866  0.00  0.00    +0.157 HD
ENDBRANCH  15  28
ENDBRANCH   1  19
BRANCH   6  31
ATOM     31  C   UNL     1      -8.874   1.302  30.710  0.00  0.00    +0.086 C 
ATOM     32  N   UNL     1      -8.063   0.141  31.031  0.00  0.00    -0.271 NA
ATOM     33  C   UNL     1      -6.968   0.742  31.777  0.00  0.00    +0.216 C 
ATOM     34  O   UNL     1      -6.876   2.062  31.415  0.00  0.00    -0.336 OA
ATOM     35  C   UNL     1      -7.828   2.317  30.409  0.00  0.00    +0.160 C 
ATOM     36  H   UNL     1      -7.727  -0.323  30.187  0.00  0.00    +0.126 HD
ENDBRANCH   6  31
BRANCH   1  37
ATOM     37  C   UNL     1     -12.853  -3.061  24.662  0.00  0.00    +0.004 C 
ATOM     38  C   UNL     1     -14.251  -3.201  24.023  0.00  0.00    +0.000 C 
ATOM     39  C   UNL     1     -12.997  -3.045  23.225  0.00  0.00    +0.000 C 
ENDBRANCH   1  37
BRANCH  11  40
ATOM     40  O   UNL     1     -14.809   2.371  26.645  0.00  0.00    -0.434 OA
BRANCH  40  41
ATOM     41  C   UNL     1     -15.850   3.250  26.382  0.00  0.00    +0.228 C 
ATOM     42  S   UNL     1     -15.956   4.137  25.017  0.00  0.00    +0.006 S 
BRANCH  41  43
ATOM     43  N   UNL     1     -16.910   3.409  27.342  0.00  0.00    -0.323 N 
ATOM     44  H   UNL     1     -16.894   2.897  28.183  0.00  0.00    +0.146 HD
ATOM     45  H   UNL     1     -17.651   4.030  27.158  0.00  0.00    +0.146 HD
ENDBRANCH  41  43
ENDBRANCH  40  41
ENDBRANCH  11  40
TORSDOF 7
