MODEL 1
REMARK VINA RESULT:    -9.056      0.000      0.000
REMARK INTER + INTRA:         -11.232
REMARK INTER:                 -10.644
REMARK INTRA:                  -0.588
REMARK UNBOUND:                -0.588
REMARK  Name = =
REMARK  4 active torsions:
REMARK  status: ('A' for Active; 'I' for Inactive)
REMARK    1  A    between atoms: C_1  and  C_14
REMARK    2  A    between atoms: N_3  and  C_4
REMARK    3  A    between atoms: C_15  and  O_22
REMARK    4  A    between atoms: C_17  and  N_21
REMARK                            x       y       z     vdW  Elec       q    Type
REMARK                         _______ _______ _______ _____ _____    ______ ____
ROOT
ATOM      1  C   UNL     1      51.838 155.796  28.447  0.00  0.00    +0.252 C 
ATOM      2  O   UNL     1      53.035 155.603  28.855  0.00  0.00    -0.270 OA
ATOM      3  N   UNL     1      51.411 155.037  27.359  0.00  0.00    -0.280 N 
ATOM      4  H   UNL     1      50.489 155.190  27.048  0.00  0.00    +0.155 HD
ENDROOT
BRANCH   3   5
ATOM      5  C   UNL     1      52.161 154.073  26.657  0.00  0.00    +0.064 C 
ATOM      6  C   UNL     1      52.060 152.736  26.860  0.00  0.00    +0.056 C 
ATOM      7  C   UNL     1      52.865 151.851  26.098  0.00  0.00    +0.178 C 
ATOM      8  C   UNL     1      53.745 152.277  25.160  0.00  0.00    +0.177 C 
ATOM      9  C   UNL     1      53.853 153.621  24.948  0.00  0.00    +0.053 C 
ATOM     10  C   UNL     1      53.082 154.498  25.677  0.00  0.00    +0.074 C 
ATOM     11 CL   UNL     1      53.218 156.215  25.408  0.00  0.00    -0.081 Cl
ATOM     12  O   UNL     1      54.346 151.132  24.626  0.00  0.00    -0.435 OA
ATOM     13  C   UNL     1      53.602 150.003  25.012  0.00  0.00    +0.429 C 
ATOM     14  O   UNL     1      52.909 150.467  26.154  0.00  0.00    -0.435 OA
ENDBRANCH   3   5
BRANCH   1  15
ATOM     15  C   UNL     1      51.073 156.794  29.182  0.00  0.00    +0.088 C 
ATOM     16  C   UNL     1      49.780 156.603  29.551  0.00  0.00    +0.139 C 
ATOM     17  C   UNL     1      49.136 157.631  30.257  0.00  0.00    +0.052 C 
ATOM     18  C   UNL     1      49.763 158.803  30.581  0.00  0.00    +0.055 C 
ATOM     19  C   UNL     1      51.071 158.968  30.196  0.00  0.00    +0.071 C 
ATOM     20  C   UNL     1      51.731 157.998  29.509  0.00  0.00    +0.020 C 
ATOM     21 CL   UNL     1      51.894 160.460  30.599  0.00  0.00    -0.081 Cl
BRANCH  18  22
ATOM     22  N   UNL     1      49.109 159.848  31.300  0.00  0.00    -0.356 N 
ATOM     23  H   UNL     1      48.585 159.638  32.106  0.00  0.00    +0.142 HD
ATOM     24  H   UNL     1      49.183 160.780  30.990  0.00  0.00    +0.142 HD
ENDBRANCH  18  22
BRANCH  16  25
ATOM     25  O   UNL     1      49.093 155.456  29.259  0.00  0.00    -0.505 OA
ATOM     26  H   UNL     1      48.813 155.288  28.380  0.00  0.00    +0.292 HD
ENDBRANCH  16  25
ENDBRANCH   1  15
TORSDOF 4
ENDMDL
