REMARK  Name = =
REMARK  4 active torsions:
REMARK  status: ('A' for Active; 'I' for Inactive)
REMARK    1  A    between atoms: C_1  and  C_14
REMARK    2  A    between atoms: N_3  and  C_4
REMARK    3  A    between atoms: C_15  and  O_22
REMARK    4  A    between atoms: C_17  and  N_21
REMARK                            x       y       z     vdW  Elec       q    Type
REMARK                         _______ _______ _______ _____ _____    ______ ____
ROOT
ATOM      1  C   UNL     1      51.475 156.237  29.171  0.00  0.00    +0.252 C 
ATOM      2  O   UNL     1      51.282 155.776  30.349  0.00  0.00    -0.270 OA
ATOM      3  N   UNL     1      51.145 157.574  28.953  0.00  0.00    -0.280 N 
ATOM      4  H   UNL     1      51.294 157.923  28.045  0.00  0.00    +0.155 HD
ENDROOT
BRANCH   3   5
ATOM      5  C   UNL     1      50.620 158.477  29.898  0.00  0.00    +0.064 C 
ATOM      6  C   UNL     1      51.331 159.485  30.462  0.00  0.00    +0.056 C 
ATOM      7  C   UNL     1      50.705 160.339  31.406  0.00  0.00    +0.178 C 
ATOM      8  C   UNL     1      49.410 160.200  31.780  0.00  0.00    +0.177 C 
ATOM      9  C   UNL     1      48.686 159.189  31.217  0.00  0.00    +0.053 C 
ATOM     10  C   UNL     1      49.274 158.348  30.300  0.00  0.00    +0.074 C 
ATOM     11 CL   UNL     1      48.352 157.056  29.579  0.00  0.00    -0.081 Cl
ATOM     12  O   UNL     1      49.153 161.211  32.713  0.00  0.00    -0.435 OA
ATOM     13  C   UNL     1      50.194 162.154  32.663  0.00  0.00    +0.429 C 
ATOM     14  O   UNL     1      51.252 161.414  32.087  0.00  0.00    -0.435 OA
ENDBRANCH   3   5
BRANCH   1  15
ATOM     15  C   UNL     1      52.019 155.293  28.205  0.00  0.00    +0.088 C 
ATOM     16  C   UNL     1      52.827 155.673  27.182  0.00  0.00    +0.139 C 
ATOM     17  C   UNL     1      53.296 154.681  26.307  0.00  0.00    +0.052 C 
ATOM     18  C   UNL     1      52.969 153.360  26.452  0.00  0.00    +0.055 C 
ATOM     19  C   UNL     1      52.150 153.005  27.497  0.00  0.00    +0.071 C 
ATOM     20  C   UNL     1      51.673 153.935  28.366  0.00  0.00    +0.020 C 
ATOM     21 CL   UNL     1      51.718 151.321  27.702  0.00  0.00    -0.081 Cl
BRANCH  18  22
ATOM     22  N   UNL     1      53.446 152.350  25.564  0.00  0.00    -0.356 N 
ATOM     23  H   UNL     1      54.033 152.593  24.812  0.00  0.00    +0.142 HD
ATOM     24  H   UNL     1      53.188 151.410  25.703  0.00  0.00    +0.142 HD
ENDBRANCH  18  22
BRANCH  16  25
ATOM     25  O   UNL     1      53.193 156.976  26.978  0.00  0.00    -0.505 OA
ATOM     26  H   UNL     1      52.885 157.645  27.557  0.00  0.00    +0.292 HD
ENDBRANCH  16  25
ENDBRANCH   1  15
TORSDOF 4
