REMARK  Name = =
REMARK  0 active torsions:
REMARK  status: ('A' for Active; 'I' for Inactive)
REMARK                            x       y       z     vdW  Elec       q    Type
REMARK                         _______ _______ _______ _____ _____    ______ ____
ROOT
ATOM      1  N   UNL     1      -3.966  -3.859  30.673  0.00  0.00    -0.283 N 
ATOM      2  C   UNL     1      -2.966  -2.972  30.241  0.00  0.00    +0.226 C 
ATOM      3  O   UNL     1      -3.288  -1.780  30.009  0.00  0.00    -0.275 OA
ATOM      4  C   UNL     1      -1.586  -3.463  30.075  0.00  0.00    +0.090 C 
ATOM      5  C   UNL     1      -1.479  -4.933  29.870  0.00  0.00    +0.037 C 
ATOM      6  C   UNL     1      -2.436  -5.788  30.581  0.00  0.00    -0.010 C 
ATOM      7  C   UNL     1      -3.694  -5.201  31.057  0.00  0.00    +0.059 C 
ATOM      8  H   UNL     1      -4.896  -3.538  30.712  0.00  0.00    +0.155 HD
ENDROOT
TORSDOF 0
