REMARK  Name = =
REMARK  1 active torsions:
REMARK  status: ('A' for Active; 'I' for Inactive)
REMARK    1  A    between atoms: C_1  and  C_15
REMARK                            x       y       z     vdW  Elec       q    Type
REMARK                         _______ _______ _______ _____ _____    ______ ____
ROOT
ATOM      1  C   UNL     1      -1.153  -5.995  29.887  0.00  0.00    -0.022 C 
ATOM      2  C   UNL     1      -2.205  -6.339  30.852  0.00  0.00    -0.009 C 
ATOM      3  C   UNL     1      -1.802  -6.698  32.222  0.00  0.00    -0.026 C 
ATOM      4  C   UNL     1      -0.429  -7.111  32.477  0.00  0.00    -0.026 C 
ATOM      5  C   UNL     1      -0.243  -8.502  33.003  0.00  0.00    +0.026 C 
ATOM      6  C   UNL     1      -1.072  -9.428  32.127  0.00  0.00    +0.005 C 
ATOM      7  C   UNL     1      -2.511  -9.105  32.347  0.00  0.00    +0.005 C 
ATOM      8  C   UNL     1      -2.752  -7.713  32.871  0.00  0.00    +0.026 C 
ATOM      9  C   UNL     1       0.588  -6.690  31.514  0.00  0.00    -0.005 C 
ATOM     10  C   UNL     1       0.234  -6.193  30.359  0.00  0.00    -0.005 C 
ENDROOT
BRANCH   1  15
ATOM     11  N   UNL     1      -1.426  -1.776  29.779  0.00  0.00    -0.304 N 
ATOM     12  C   UNL     1      -0.205  -2.371  29.365  0.00  0.00    +0.223 C 
ATOM     13  O   UNL     1       0.630  -1.727  28.688  0.00  0.00    -0.275 OA
ATOM     14  C   UNL     1       0.012  -3.780  29.782  0.00  0.00    +0.089 C 
ATOM     15  C   UNL     1      -1.220  -4.557  29.378  0.00  0.00    +0.033 C 
ATOM     16  C   UNL     1      -2.510  -3.891  29.698  0.00  0.00    +0.026 C 
ATOM     17  C   UNL     1      -2.350  -2.621  30.509  0.00  0.00    +0.090 C 
ATOM     18  H   UNL     1      -1.635  -0.835  29.580  0.00  0.00    +0.149 HD
ENDBRANCH   1  15
TORSDOF 1
