REMARK  Name = =
REMARK  2 active torsions:
REMARK  status: ('A' for Active; 'I' for Inactive)
REMARK    1  A    between atoms: C_1  and  C_15
REMARK    2  A    between atoms: C_5  and  N_18
REMARK                            x       y       z     vdW  Elec       q    Type
REMARK                         _______ _______ _______ _____ _____    ______ ____
ROOT
ATOM      1  C   UNL     1       8.841 -13.489  22.382  0.00  0.00    +0.022 C 
ATOM      2  C   UNL     1       7.952 -13.807  23.563  0.00  0.00    +0.005 C 
ATOM      3  C   UNL     1       7.046 -12.616  23.761  0.00  0.00    +0.006 C 
ATOM      4  C   UNL     1       7.832 -11.457  24.358  0.00  0.00    +0.036 C 
ATOM      5  C   UNL     1       8.187 -11.799  25.745  0.00  0.00    +0.062 C 
ATOM      6  C   UNL     1       6.809 -12.032  26.429  0.00  0.00    +0.016 C 
ATOM      7  C   UNL     1       6.132 -13.262  25.921  0.00  0.00    +0.001 C 
ATOM      8  C   UNL     1       5.790 -12.959  24.470  0.00  0.00    +0.000 C 
ATOM      9  C   UNL     1       8.931 -11.228  23.398  0.00  0.00    -0.030 C 
ATOM     10  C   UNL     1       9.377 -12.123  22.526  0.00  0.00    -0.031 C 
ENDROOT
BRANCH   1  15
ATOM     11  N   UNL     1       9.012 -15.223  18.802  0.00  0.00    -0.304 N 
ATOM     12  C   UNL     1       9.502 -13.924  19.054  0.00  0.00    +0.222 C 
ATOM     13  O   UNL     1      10.578 -13.523  18.572  0.00  0.00    -0.275 OA
ATOM     14  C   UNL     1       8.711 -13.019  19.916  0.00  0.00    +0.085 C 
ATOM     15  C   UNL     1       8.098 -13.710  21.086  0.00  0.00    +0.015 C 
ATOM     16  C   UNL     1       7.827 -15.180  20.863  0.00  0.00    +0.022 C 
ATOM     17  C   UNL     1       7.710 -15.539  19.410  0.00  0.00    +0.089 C 
ATOM     18  H   UNL     1       9.508 -15.875  18.256  0.00  0.00    +0.149 HD
ENDBRANCH   1  15
BRANCH   5  19
ATOM     19  N   UNL     1       8.733 -10.779  26.600  0.00  0.00    -0.271 NA
ATOM     20  C   UNL     1       8.100 -10.633  27.874  0.00  0.00    +0.089 C 
ATOM     21  C   UNL     1       8.351  -9.352  28.586  0.00  0.00    +0.086 C 
ATOM     22  N   UNL     1       8.355  -8.185  27.752  0.00  0.00    -0.295 NA
ATOM     23  C   UNL     1       7.900  -8.440  26.423  0.00  0.00    +0.086 C 
ATOM     24  C   UNL     1       8.667  -9.565  25.799  0.00  0.00    +0.089 C 
ATOM     25  H   UNL     1       9.308  -7.824  27.704  0.00  0.00    +0.123 HD
ENDBRANCH   5  19
TORSDOF 2
