REMARK  Name = =
REMARK  3 active torsions:
REMARK  status: ('A' for Active; 'I' for Inactive)
REMARK    1  A    between atoms: C_5  and  C_8
REMARK    2  A    between atoms: C_5  and  C_23
REMARK    3  A    between atoms: C_27  and  N_33
REMARK                            x       y       z     vdW  Elec       q    Type
REMARK                         _______ _______ _______ _____ _____    ______ ____
ROOT
ATOM      1  N   UNL     1       7.964  -9.927  27.909  0.00  0.00    -0.304 N 
ATOM      2  C   UNL     1       7.907 -10.458  26.604  0.00  0.00    +0.223 C 
ATOM      3  O   UNL     1       8.704 -11.312  26.178  0.00  0.00    -0.275 OA
ATOM      4  C   UNL     1       6.811  -9.935  25.721  0.00  0.00    +0.089 C 
ATOM      5  C   UNL     1       5.510  -9.735  26.411  0.00  0.00    +0.033 C 
ATOM      6  C   UNL     1       5.657 -10.389  27.786  0.00  0.00    +0.026 C 
ATOM      7  C   UNL     1       6.706  -9.627  28.564  0.00  0.00    +0.090 C 
ATOM      8  H   UNL     1       8.825  -9.766  28.358  0.00  0.00    +0.149 HD
ENDROOT
BRANCH   5   9
ATOM      9  C   UNL     1       5.177  -8.305  26.626  0.00  0.00    -0.022 C 
ATOM     10  C   UNL     1       4.007  -7.950  27.284  0.00  0.00    +0.002 C 
ATOM     11  C   UNL     1       3.683  -6.637  27.471  0.00  0.00    +0.067 C 
ATOM     12  C   UNL     1       4.499  -5.614  27.017  0.00  0.00    +0.061 C 
ATOM     13  N   UNL     1       4.308  -4.209  27.139  0.00  0.00    -0.249 N 
ATOM     14  C   UNL     1       5.307  -3.346  27.142  0.00  0.00    +0.172 C 
ATOM     15  N   UNL     1       4.763  -2.120  27.275  0.00  0.00    -0.225 NA
ATOM     16  C   UNL     1       3.413  -2.234  27.355  0.00  0.00    +0.113 C 
ATOM     17  C   UNL     1       3.114  -3.568  27.268  0.00  0.00    +0.073 C 
ATOM     18  C   UNL     1       1.738  -4.094  27.326  0.00  0.00    +0.134 C 
ATOM     19  N   UNL     1       1.597  -5.259  28.181  0.00  0.00    -0.296 N 
ATOM     20  C   UNL     1       2.407  -6.441  28.157  0.00  0.00    +0.247 C 
ATOM     21  O   UNL     1       1.996  -7.440  28.789  0.00  0.00    -0.270 OA
ATOM     22  C   UNL     1       5.653  -5.923  26.365  0.00  0.00    +0.015 C 
ATOM     23  C   UNL     1       5.960  -7.277  26.188  0.00  0.00    -0.003 C 
ATOM     24  H   UNL     1       0.871  -5.234  28.845  0.00  0.00    +0.150 HD
ENDBRANCH   5   9
BRANCH   5  25
ATOM     25  C   UNL     1       4.363 -10.417  25.676  0.00  0.00    +0.026 C 
ATOM     26  C   UNL     1       3.870 -11.668  26.282  0.00  0.00    +0.005 C 
ATOM     27  C   UNL     1       4.657 -12.884  25.922  0.00  0.00    +0.006 C 
ATOM     28  C   UNL     1       4.489 -13.163  24.482  0.00  0.00    +0.036 C 
ATOM     29  C   UNL     1       3.126 -13.624  24.037  0.00  0.00    +0.062 C 
ATOM     30  C   UNL     1       2.215 -14.121  25.102  0.00  0.00    +0.016 C 
ATOM     31  C   UNL     1       2.694 -14.123  26.504  0.00  0.00    +0.001 C 
ATOM     32  C   UNL     1       4.176 -14.097  26.688  0.00  0.00    +0.000 C 
ATOM     33  C   UNL     1       4.857 -11.922  23.743  0.00  0.00    -0.030 C 
ATOM     34  C   UNL     1       4.803 -10.726  24.260  0.00  0.00    -0.031 C 
BRANCH  29  35
ATOM     35  N   UNL     1       3.341 -14.490  22.960  0.00  0.00    -0.271 NA
ATOM     36  C   UNL     1       4.255 -15.535  22.970  0.00  0.00    +0.089 C 
ATOM     37  C   UNL     1       3.549 -16.836  22.679  0.00  0.00    +0.086 C 
ATOM     38  N   UNL     1       2.816 -16.704  21.443  0.00  0.00    -0.295 NA
ATOM     39  C   UNL     1       2.942 -15.453  20.776  0.00  0.00    +0.086 C 
ATOM     40  C   UNL     1       2.710 -14.272  21.721  0.00  0.00    +0.089 C 
ATOM     41  H   UNL     1       1.828 -16.850  21.649  0.00  0.00    +0.123 HD
ENDBRANCH  29  35
ENDBRANCH   5  25
TORSDOF 3
