REMARK  Name = =
REMARK  8 active torsions:
REMARK  status: ('A' for Active; 'I' for Inactive)
REMARK    1  A    between atoms: C_1  and  C_20
REMARK    2  A    between atoms: C_2  and  O_39
REMARK    3  A    between atoms: C_20  and  C_23
REMARK    4  A    between atoms: C_27  and  N_33
REMARK    5  A    between atoms: O_39  and  C_40
REMARK    6  A    between atoms: C_42  and  O_49
REMARK    7  A    between atoms: C_44  and  O_48
REMARK    8  A    between atoms: C_45  and  C_46
REMARK                            x       y       z     vdW  Elec       q    Type
REMARK                         _______ _______ _______ _____ _____    ______ ____
ROOT
ATOM      1  C   UNL     1       5.491  -8.681  24.233  0.00  0.00    +0.013 C 
ATOM      2  C   UNL     1       5.480  -8.015  25.466  0.00  0.00    +0.147 C 
ATOM      3  C   UNL     1       5.053  -6.728  25.656  0.00  0.00    +0.101 C 
ATOM      4  C   UNL     1       4.597  -6.014  24.548  0.00  0.00    +0.064 C 
ATOM      5  N   UNL     1       4.120  -4.667  24.562  0.00  0.00    -0.249 N 
ATOM      6  C   UNL     1       3.270  -4.221  23.649  0.00  0.00    +0.172 C 
ATOM      7  N   UNL     1       3.033  -2.934  23.955  0.00  0.00    -0.225 NA
ATOM      8  C   UNL     1       3.752  -2.604  25.070  0.00  0.00    +0.113 C 
ATOM      9  C   UNL     1       4.458  -3.720  25.468  0.00  0.00    +0.073 C 
ATOM     10  C   UNL     1       5.346  -3.726  26.643  0.00  0.00    +0.134 C 
ATOM     11  N   UNL     1       5.274  -4.918  27.452  0.00  0.00    -0.296 N 
ATOM     12  C   UNL     1       5.114  -6.255  27.059  0.00  0.00    +0.250 C 
ATOM     13  O   UNL     1       5.004  -7.186  27.898  0.00  0.00    -0.270 OA
ATOM     14  C   UNL     1       4.582  -6.596  23.313  0.00  0.00    +0.015 C 
ATOM     15  C   UNL     1       5.021  -7.908  23.168  0.00  0.00    +0.000 C 
ATOM     16  H   UNL     1       5.348  -4.772  28.423  0.00  0.00    +0.150 HD
ENDROOT
BRANCH   1  21
ATOM     17  N   UNL     1       8.255  -9.933  22.395  0.00  0.00    -0.304 N 
ATOM     18  C   UNL     1       8.338 -10.112  23.782  0.00  0.00    +0.223 C 
ATOM     19  O   UNL     1       9.399  -9.870  24.402  0.00  0.00    -0.275 OA
ATOM     20  C   UNL     1       7.162 -10.590  24.502  0.00  0.00    +0.090 C 
ATOM     21  C   UNL     1       5.827 -10.079  24.105  0.00  0.00    +0.036 C 
ATOM     22  C   UNL     1       5.871 -10.362  22.559  0.00  0.00    +0.026 C 
ATOM     23  C   UNL     1       6.944  -9.599  21.862  0.00  0.00    +0.090 C 
ATOM     24  H   UNL     1       9.043 -10.028  21.812  0.00  0.00    +0.149 HD
BRANCH  21  25
ATOM     25  C   UNL     1       4.771 -11.051  24.552  0.00  0.00    +0.026 C 
ATOM     26  C   UNL     1       4.468 -11.103  26.007  0.00  0.00    +0.005 C 
ATOM     27  C   UNL     1       3.626 -12.340  26.266  0.00  0.00    +0.006 C 
ATOM     28  C   UNL     1       2.436 -12.470  25.401  0.00  0.00    +0.036 C 
ATOM     29  C   UNL     1       2.199 -13.906  25.024  0.00  0.00    +0.062 C 
ATOM     30  C   UNL     1       3.443 -14.424  24.341  0.00  0.00    +0.016 C 
ATOM     31  C   UNL     1       4.539 -14.502  25.353  0.00  0.00    +0.001 C 
ATOM     32  C   UNL     1       4.407 -13.571  26.509  0.00  0.00    +0.000 C 
ATOM     33  C   UNL     1       2.436 -11.622  24.179  0.00  0.00    -0.030 C 
ATOM     34  C   UNL     1       3.505 -10.954  23.764  0.00  0.00    -0.031 C 
BRANCH  29  35
ATOM     35  N   UNL     1       1.091 -13.986  24.094  0.00  0.00    -0.271 NA
ATOM     36  C   UNL     1       1.077 -15.327  23.546  0.00  0.00    +0.089 C 
ATOM     37  C   UNL     1      -0.326 -15.771  23.192  0.00  0.00    +0.086 C 
ATOM     38  N   UNL     1      -1.168 -15.873  24.368  0.00  0.00    -0.295 NA
ATOM     39  C   UNL     1      -0.753 -14.953  25.407  0.00  0.00    +0.086 C 
ATOM     40  C   UNL     1      -0.164 -13.730  24.734  0.00  0.00    +0.089 C 
ATOM     41  H   UNL     1      -1.116 -16.825  24.730  0.00  0.00    +0.123 HD
ENDBRANCH  29  35
ENDBRANCH  21  25
ENDBRANCH   1  21
BRANCH   2  42
ATOM     42  O   UNL     1       5.932  -8.642  26.631  0.00  0.00    -0.453 OA
BRANCH  42  43
ATOM     43  C   UNL     1       7.313  -8.512  26.945  0.00  0.00    +0.154 C 
ATOM     44  C   UNL     1       8.036  -7.474  26.471  0.00  0.00    +0.074 C 
ATOM     45  C   UNL     1       9.366  -7.381  26.795  0.00  0.00    +0.140 C 
ATOM     46  C   UNL     1       9.926  -8.350  27.594  0.00  0.00    +0.073 C 
ATOM     47  C   UNL     1       9.151  -9.419  28.073  0.00  0.00    +0.143 C 
ATOM     48  C   UNL     1       7.823  -9.531  27.763  0.00  0.00    +0.110 C 
BRANCH  48  49
ATOM     49  C   UNL     1       6.954 -10.603  28.217  0.00  0.00    +0.240 C 
ATOM     50  O   UNL     1       7.318 -11.646  28.777  0.00  0.00    -0.283 OA
ENDBRANCH  48  49
BRANCH  47  51
ATOM     51  O   UNL     1       9.795 -10.332  28.860  0.00  0.00    -0.505 OA
ATOM     52  H   UNL     1      10.706 -10.225  29.053  0.00  0.00    +0.292 HD
ENDBRANCH  47  51
BRANCH  45  53
ATOM     53  O   UNL     1      10.093  -6.302  26.296  0.00  0.00    -0.505 OA
ATOM     54  H   UNL     1       9.672  -5.664  25.755  0.00  0.00    +0.292 HD
ENDBRANCH  45  53
ENDBRANCH  42  43
ENDBRANCH   2  42
TORSDOF 8
