REMARK  Name = =
REMARK  4 active torsions:
REMARK  status: ('A' for Active; 'I' for Inactive)
REMARK    1  A    between atoms: C_4  and  O_20
REMARK    2  A    between atoms: C_6  and  O_19
REMARK    3  A    between atoms: C_11  and  C_12
REMARK    4  A    between atoms: C_15  and  O_18
REMARK                            x       y       z     vdW  Elec       q    Type
REMARK                         _______ _______ _______ _____ _____    ______ ____
ROOT
ATOM      1  O   UNL     1     -15.034 -43.122  28.070  0.00  0.00    -0.453 OA
ATOM      2  C   UNL     1     -15.947 -42.663  27.266  0.00  0.00    +0.154 C 
ATOM      3  C   UNL     1     -15.683 -42.630  25.902  0.00  0.00    +0.107 C 
ATOM      4  C   UNL     1     -16.650 -42.145  25.068  0.00  0.00    +0.143 C 
ATOM      5  C   UNL     1     -17.877 -41.692  25.580  0.00  0.00    +0.073 C 
ATOM      6  C   UNL     1     -18.141 -41.723  26.933  0.00  0.00    +0.140 C 
ATOM      7  C   UNL     1     -17.176 -42.206  27.759  0.00  0.00    +0.074 C 
ATOM      8  C   UNL     1     -14.463 -43.088  25.461  0.00  0.00    +0.205 C 
ATOM      9  O   UNL     1     -14.168 -43.085  24.254  0.00  0.00    -0.286 OA
ATOM     10  C   UNL     1     -13.552 -43.562  26.408  0.00  0.00    +0.080 C 
ATOM     11  C   UNL     1     -13.849 -43.578  27.749  0.00  0.00    +0.148 C 
ENDROOT
BRANCH  11  12
ATOM     12  C   UNL     1     -12.918 -44.068  28.760  0.00  0.00    +0.035 C 
ATOM     13  C   UNL     1     -13.016 -43.676  30.086  0.00  0.00    +0.006 C 
ATOM     14  C   UNL     1     -12.141 -44.132  31.051  0.00  0.00    +0.037 C 
ATOM     15  C   UNL     1     -11.123 -45.004  30.732  0.00  0.00    +0.134 C 
ATOM     16  C   UNL     1     -11.017 -45.397  29.420  0.00  0.00    +0.037 C 
ATOM     17  C   UNL     1     -11.911 -44.931  28.437  0.00  0.00    +0.006 C 
BRANCH  15  18
ATOM     18  O   UNL     1     -10.225 -45.478  31.692  0.00  0.00    -0.506 OA
ATOM     19  H   UNL     1     -10.305 -45.204  32.584  0.00  0.00    +0.292 HD
ENDBRANCH  15  18
ENDBRANCH  11  12
BRANCH   6  20
ATOM     20  O   UNL     1     -19.334 -41.287  27.478  0.00  0.00    -0.505 OA
ATOM     21  H   UNL     1     -20.009 -40.951  26.921  0.00  0.00    +0.292 HD
ENDBRANCH   6  20
BRANCH   4  22
ATOM     22  O   UNL     1     -16.499 -42.069  23.734  0.00  0.00    -0.505 OA
ATOM     23  H   UNL     1     -17.192 -41.728  23.203  0.00  0.00    +0.292 HD
ENDBRANCH   4  22
TORSDOF 4
