REMARK  Name = =
REMARK  7 active torsions:
REMARK  status: ('A' for Active; 'I' for Inactive)
REMARK    1  A    between atoms: C_4  and  O_29
REMARK    2  A    between atoms: C_6  and  O_28
REMARK    3  A    between atoms: C_10  and  C_19
REMARK    4  A    between atoms: C_11  and  C_12
REMARK    5  A    between atoms: C_15  and  O_18
REMARK    6  A    between atoms: C_22  and  O_25
REMARK    7  A    between atoms: O_25  and  C_26
REMARK                            x       y       z     vdW  Elec       q    Type
REMARK                         _______ _______ _______ _____ _____    ______ ____
ROOT
ATOM      1  O   UNL     1     -15.258 -43.089  28.487  0.00  0.00    -0.453 OA
ATOM      2  C   UNL     1     -15.219 -42.805  27.204  0.00  0.00    +0.154 A 
ATOM      3  C   UNL     1     -14.002 -42.701  26.521  0.00  0.00    +0.107 A 
ATOM      4  C   UNL     1     -13.977 -42.404  25.183  0.00  0.00    +0.143 C 
ATOM      5  C   UNL     1     -15.212 -42.210  24.521  0.00  0.00    +0.073 C 
ATOM      6  C   UNL     1     -16.374 -42.321  25.225  0.00  0.00    +0.140 C 
ATOM      7  C   UNL     1     -16.423 -42.617  26.563  0.00  0.00    +0.074 C 
ATOM      8  C   UNL     1     -12.873 -42.908  27.260  0.00  0.00    +0.204 A 
ATOM      9  O   UNL     1     -11.730 -42.834  26.726  0.00  0.00    -0.286 OA
ATOM     10  C   UNL     1     -12.992 -43.203  28.607  0.00  0.00    +0.074 A 
ATOM     11  C   UNL     1     -14.205 -43.295  29.232  0.00  0.00    +0.148 A 
ENDROOT
BRANCH  11  12
ATOM     12  C   UNL     1     -14.317 -43.610  30.667  0.00  0.00    +0.035 C 
ATOM     13  C   UNL     1     -14.044 -44.871  31.155  0.00  0.00    +0.006 C 
ATOM     14  C   UNL     1     -14.156 -45.139  32.505  0.00  0.00    +0.037 C 
ATOM     15  C   UNL     1     -14.540 -44.170  33.410  0.00  0.00    +0.134 C 
ATOM     16  C   UNL     1     -14.815 -42.910  32.929  0.00  0.00    +0.037 C 
ATOM     17  C   UNL     1     -14.701 -42.636  31.565  0.00  0.00    +0.006 C 
BRANCH  15  18
ATOM     18  O   UNL     1     -14.652 -44.451  34.780  0.00  0.00    -0.506 OA
ATOM     19  H   UNL     1     -14.463 -45.312  35.099  0.00  0.00    +0.292 HD
ENDBRANCH  15  18
ENDBRANCH  11  12
BRANCH  10  20
ATOM     20  C   UNL     1     -11.775 -43.412  29.341  0.00  0.00    +0.006 C 
ATOM     21  C   UNL     1     -11.357 -42.543  30.316  0.00  0.00    +0.003 C 
ATOM     22  C   UNL     1     -10.169 -42.809  30.988  0.00  0.00    +0.038 C 
ATOM     23  C   UNL     1      -9.396 -43.915  30.707  0.00  0.00    +0.149 C 
ATOM     24  C   UNL     1      -9.827 -44.784  29.723  0.00  0.00    +0.038 C 
ATOM     25  C   UNL     1     -11.007 -44.517  29.059  0.00  0.00    +0.003 C 
BRANCH  23  26
ATOM     26  O   UNL     1      -8.207 -44.151  31.402  0.00  0.00    -0.417 OA
BRANCH  26  27
ATOM     27  C   UNL     1      -7.087 -43.346  31.270  0.00  0.00    +0.423 C 
ATOM     28  O   UNL     1      -7.168 -42.268  30.621  0.00  0.00    -0.237 OA
ENDBRANCH  26  27
ENDBRANCH  23  26
ENDBRANCH  10  20
BRANCH   6  29
ATOM     29  O   UNL     1     -17.607 -42.131  24.579  0.00  0.00    -0.505 OA
ATOM     30  H   UNL     1     -17.630 -41.927  23.665  0.00  0.00    +0.292 HD
ENDBRANCH   6  29
BRANCH   4  31
ATOM     31  O   UNL     1     -12.833 -42.291  24.477  0.00  0.00    -0.505 OA
ATOM     32  H   UNL     1     -12.007 -42.417  24.901  0.00  0.00    +0.292 HD
ENDBRANCH   4  31
TORSDOF 7
