REMARK  Name = =
REMARK  0 active torsions:
REMARK  status: ('A' for Active; 'I' for Inactive)
REMARK                            x       y       z     vdW  Elec       q    Type
REMARK                         _______ _______ _______ _____ _____    ______ ____
ROOT
ATOM      1  N   UNL     1      52.813 156.179  27.991  0.00  0.00    -0.052 NA
ATOM      2  O   UNL     1      52.824 154.886  28.124  0.00  0.00    -0.327 OA
ATOM      3  C   UNL     1      52.877 154.310  26.947  0.00  0.00    +0.316 C 
ATOM      4  N   UNL     1      52.901 155.291  26.029  0.00  0.00    -0.180 NA
ATOM      5  C   UNL     1      52.860 156.467  26.678  0.00  0.00    +0.243 C 
ENDROOT
TORSDOF 0
