REMARK  Name = =
REMARK  3 active torsions:
REMARK  status: ('A' for Active; 'I' for Inactive)
REMARK    1  A    between atoms: O_2  and  O_9
REMARK    2  A    between atoms: P_11  and  O_13
REMARK    3  A    between atoms: P_11  and  O_14
REMARK                            x       y       z     vdW  Elec       q    Type
REMARK                         _______ _______ _______ _____ _____    ______ ____
ROOT
ATOM      1  P   UNL     1      52.507 154.503  26.515  0.00  0.00    +0.000 P 
ENDROOT
TORSDOF 0
REMARK  Name = =
REMARK  3 active torsions:
REMARK  status: ('A' for Active; 'I' for Inactive)
REMARK    1  A    between atoms: O_2  and  O_9
REMARK    2  A    between atoms: P_11  and  O_13
REMARK    3  A    between atoms: P_11  and  O_14
REMARK                            x       y       z     vdW  Elec       q    Type
REMARK                         _______ _______ _______ _____ _____    ______ ____
ROOT
ATOM      1  O   UNL     1      51.600 154.299  25.376  0.00  0.00    -0.253 OA
ATOM      2  H   UNL     1      50.937 154.410  24.677  0.00  0.00    +0.253 HD
ENDROOT
BRANCH   1   3
ATOM      3  O   UNL     1      52.809 155.583  25.251  0.00  0.00    -0.253 OA
ATOM      4  H   UNL     1      53.472 155.472  25.950  0.00  0.00    +0.253 HD
ENDBRANCH   1   3
TORSDOF 1
REMARK  Name = =
REMARK  3 active torsions:
REMARK  status: ('A' for Active; 'I' for Inactive)
REMARK    1  A    between atoms: O_2  and  O_9
REMARK    2  A    between atoms: P_11  and  O_13
REMARK    3  A    between atoms: P_11  and  O_14
REMARK                            x       y       z     vdW  Elec       q    Type
REMARK                         _______ _______ _______ _____ _____    ______ ____
ROOT
ATOM      1  N   UNL     1      50.968 155.817  29.763  0.00  0.00    -0.052 NA
ATOM      2  O   UNL     1      51.063 154.950  28.812  0.00  0.00    -0.327 OA
ATOM      3  C   UNL     1      52.000 155.347  27.974  0.00  0.00    +0.316 C 
ATOM      4  N   UNL     1      52.532 156.516  28.395  0.00  0.00    -0.180 NA
ATOM      5  C   UNL     1      51.858 156.801  29.543  0.00  0.00    +0.243 C 
ENDROOT
TORSDOF 0
REMARK  Name = =
REMARK  3 active torsions:
REMARK  status: ('A' for Active; 'I' for Inactive)
REMARK    1  A    between atoms: O_2  and  O_9
REMARK    2  A    between atoms: P_11  and  O_13
REMARK    3  A    between atoms: P_11  and  O_14
REMARK                            x       y       z     vdW  Elec       q    Type
REMARK                         _______ _______ _______ _____ _____    ______ ____
ROOT
ATOM      1  O   HOH     1      54.077 153.994  26.942  0.00  0.00    -0.253 OA
ATOM      2  H   HOH     0      55.047 153.994  26.942  0.00  0.00    +0.253 HD
ENDROOT
TORSDOF 0
REMARK  Name = =
REMARK  3 active torsions:
REMARK  status: ('A' for Active; 'I' for Inactive)
REMARK    1  A    between atoms: O_2  and  O_9
REMARK    2  A    between atoms: P_11  and  O_13
REMARK    3  A    between atoms: P_11  and  O_14
REMARK                            x       y       z     vdW  Elec       q    Type
REMARK                         _______ _______ _______ _____ _____    ______ ____
ROOT
ATOM      1  O   UNL     1      52.636 152.861  26.968  0.00  0.00    -0.116 OA
ATOM      2  P   UNL     1      53.543 152.003  25.830  0.00  0.00    +0.500 P 
ATOM      3  O   UNL     1      54.979 151.981  26.310  0.00  0.00    -0.225 OA
ENDROOT
BRANCH   2   4
ATOM      4  O   UNL     1      52.939 150.414  25.676  0.00  0.00    -0.301 OA
ATOM      5  H   UNL     1      52.943 149.981  26.544  0.00  0.00    +0.222 HD
ENDBRANCH   2   4
BRANCH   2   6
ATOM      6  O   UNL     1      53.516 152.702  24.315  0.00  0.00    -0.301 OA
ATOM      7  H   UNL     1      53.855 153.609  24.371  0.00  0.00    +0.222 HD
ENDBRANCH   2   6
TORSDOF 2
