REMARK  Name = =
REMARK  4 active torsions:
REMARK  status: ('A' for Active; 'I' for Inactive)
REMARK    1  A    between atoms: O_2  and  O_14
REMARK    2  A    between atoms: P_10  and  O_12
REMARK    3  A    between atoms: P_10  and  O_13
REMARK    4  A    between atoms: O_14  and  C_15
REMARK                            x       y       z     vdW  Elec       q    Type
REMARK                         _______ _______ _______ _____ _____    ______ ____
ROOT
ATOM      1  P   UNL     1      52.574 153.777  27.407  0.00  0.00    +0.000 P 
ENDROOT
TORSDOF 0
REMARK  Name = =
REMARK  4 active torsions:
REMARK  status: ('A' for Active; 'I' for Inactive)
REMARK    1  A    between atoms: O_2  and  O_14
REMARK    2  A    between atoms: P_10  and  O_12
REMARK    3  A    between atoms: P_10  and  O_13
REMARK    4  A    between atoms: O_14  and  C_15
REMARK                            x       y       z     vdW  Elec       q    Type
REMARK                         _______ _______ _______ _____ _____    ______ ____
ROOT
ATOM      1  C   UNL     1      52.378 155.335  29.540  0.00  0.00    +0.211 C 
ATOM      2  C   UNL     1      51.325 156.102  29.565  0.00  0.00    -0.004 C 
ATOM      3  C   UNL     1      51.428 157.482  30.036  0.00  0.00    +0.021 C 
ATOM      4  C   UNL     1      50.105 158.169  29.656  0.00  0.00    +0.004 C 
ATOM      5  C   UNL     1      50.441 159.571  30.045  0.00  0.00    +0.000 C 
ATOM      6  C   UNL     1      51.843 159.738  29.494  0.00  0.00    +0.000 C 
ATOM      7  C   UNL     1      52.395 158.338  29.296  0.00  0.00    +0.004 C 
ATOM      8  C   UNL     1      49.052 157.518  30.481  0.00  0.00    +0.001 C 
ATOM      9  C   UNL     1      48.867 156.103  29.976  0.00  0.00    +0.004 C 
ATOM     10  C   UNL     1      49.991 155.615  29.121  0.00  0.00    +0.025 C 
ENDROOT
BRANCH   1  11
ATOM     11  O   UNL     1      52.347 153.999  29.098  0.00  0.00    -0.334 OA
BRANCH  11  12
ATOM     12  O   UNL     1      53.701 153.800  28.404  0.00  0.00    -0.201 OA
ATOM     13  H   UNL     1      53.761 152.893  28.066  0.00  0.00    +0.267 HD
ENDBRANCH  11  12
ENDBRANCH   1  11
TORSDOF 2
REMARK  Name = =
REMARK  4 active torsions:
REMARK  status: ('A' for Active; 'I' for Inactive)
REMARK    1  A    between atoms: O_2  and  O_14
REMARK    2  A    between atoms: P_10  and  O_12
REMARK    3  A    between atoms: P_10  and  O_13
REMARK    4  A    between atoms: O_14  and  C_15
REMARK                            x       y       z     vdW  Elec       q    Type
REMARK                         _______ _______ _______ _____ _____    ______ ____
ROOT
ATOM      1  N   UNL     1      53.798 157.292  26.578  0.00  0.00    -0.052 NA
ATOM      2  O   UNL     1      53.236 156.416  27.350  0.00  0.00    -0.327 OA
ATOM      3  C   UNL     1      53.234 155.262  26.755  0.00  0.00    +0.316 C 
ATOM      4  N   UNL     1      53.816 155.401  25.561  0.00  0.00    -0.180 NA
ATOM      5  C   UNL     1      54.172 156.681  25.449  0.00  0.00    +0.243 C 
ENDROOT
TORSDOF 0
REMARK  Name = =
REMARK  4 active torsions:
REMARK  status: ('A' for Active; 'I' for Inactive)
REMARK    1  A    between atoms: O_2  and  O_14
REMARK    2  A    between atoms: P_10  and  O_12
REMARK    3  A    between atoms: P_10  and  O_13
REMARK    4  A    between atoms: O_14  and  C_15
REMARK                            x       y       z     vdW  Elec       q    Type
REMARK                         _______ _______ _______ _____ _____    ______ ____
ROOT
ATOM      1  O   HOH     1      51.013 153.639  26.764  0.00  0.00    -0.253 OA
ATOM      2  H   HOH     0      51.983 153.639  26.764  0.00  0.00    +0.253 HD
ENDROOT
TORSDOF 0
REMARK  Name = =
REMARK  4 active torsions:
REMARK  status: ('A' for Active; 'I' for Inactive)
REMARK    1  A    between atoms: O_2  and  O_14
REMARK    2  A    between atoms: P_10  and  O_12
REMARK    3  A    between atoms: P_10  and  O_13
REMARK    4  A    between atoms: O_14  and  C_15
REMARK                            x       y       z     vdW  Elec       q    Type
REMARK                         _______ _______ _______ _____ _____    ______ ____
ROOT
ATOM      1  O   UNL     1      53.607 152.499  27.144  0.00  0.00    -0.116 OA
ATOM      2  P   UNL     1      53.501 151.828  25.620  0.00  0.00    +0.500 P 
ATOM      3  O   UNL     1      52.109 151.351  25.362  0.00  0.00    -0.225 OA
ENDROOT
BRANCH   2   4
ATOM      4  O   UNL     1      54.029 152.873  24.401  0.00  0.00    -0.301 OA
ATOM      5  H   UNL     1      53.471 153.666  24.391  0.00  0.00    +0.222 HD
ENDBRANCH   2   4
BRANCH   2   6
ATOM      6  O   UNL     1      54.509 150.444  25.605  0.00  0.00    -0.301 OA
ATOM      7  H   UNL     1      54.224 149.829  26.298  0.00  0.00    +0.222 HD
ENDBRANCH   2   6
TORSDOF 2
