REMARK  Name = =
REMARK  1 active torsions:
REMARK  status: ('A' for Active; 'I' for Inactive)
REMARK    1  A    between atoms: C_15  and  O_20
REMARK                            x       y       z     vdW  Elec       q    Type
REMARK                         _______ _______ _______ _____ _____    ______ ____
ROOT
ATOM      1  N   UNL     1      50.185 160.569  29.370  0.00  0.00    -0.270 NA
ATOM      2  C   UNL     1      51.454 160.873  29.928  0.00  0.00    +0.073 C 
ATOM      3  C   UNL     1      51.287 160.786  31.439  0.00  0.00    +0.024 C 
ATOM      4  C   UNL     1      49.845 160.485  31.696  0.00  0.00    +0.051 C 
ATOM      5  C   UNL     1      49.178 160.833  30.412  0.00  0.00    +0.067 C 
ATOM      6  C   UNL     1      48.035 159.878  30.061  0.00  0.00    +0.037 C 
ATOM      7  C   UNL     1      48.715 158.520  29.839  0.00  0.00    +0.007 C 
ATOM      8  C   UNL     1      49.530 158.094  31.008  0.00  0.00    +0.020 C 
ATOM      9  C   UNL     1      49.592 159.065  32.129  0.00  0.00    +0.074 C 
ATOM     10  N   UNL     1      48.369 159.174  32.888  0.00  0.00    -0.334 N 
ATOM     11  C   UNL     1      48.408 160.430  33.547  0.00  0.00    +0.044 C 
ATOM     12  C   UNL     1      49.295 161.256  32.851  0.00  0.00    -0.007 C 
ATOM     13  C   UNL     1      49.459 162.525  33.355  0.00  0.00    +0.000 C 
ATOM     14  C   UNL     1      48.811 162.989  34.464  0.00  0.00    +0.036 C 
ATOM     15  C   UNL     1      47.942 162.159  35.133  0.00  0.00    +0.135 C 
ATOM     16  C   UNL     1      47.743 160.880  34.670  0.00  0.00    +0.051 C 
ATOM     17  C   UNL     1      47.595 160.321  28.685  0.00  0.00    -0.028 C 
ATOM     18  C   UNL     1      48.409 160.979  27.870  0.00  0.00    -0.013 C 
ATOM     19  C   UNL     1      49.812 161.339  28.227  0.00  0.00    +0.099 C 
ATOM     20  H   UNL     1      47.647 158.506  32.939  0.00  0.00    +0.147 HD
ENDROOT
BRANCH  15  21
ATOM     21  O   UNL     1      47.259 162.571  36.261  0.00  0.00    -0.505 OA
ATOM     22  H   UNL     1      47.381 163.439  36.592  0.00  0.00    +0.292 HD
ENDBRANCH  15  21
TORSDOF 1
