REMARK  Name = =
REMARK  0 active torsions:
REMARK  status: ('A' for Active; 'I' for Inactive)
REMARK                            x       y       z     vdW  Elec       q    Type
REMARK                         _______ _______ _______ _____ _____    ______ ____
ROOT
ATOM      1  C   UNL     1      48.348 160.484  31.142  0.00  0.00    +0.000 C 
ATOM      2  C   UNL     1      49.383 160.557  32.248  0.00  0.00    +0.000 C 
ATOM      3  C   UNL     1      50.704 160.060  31.815  0.00  0.00    +0.006 C 
ATOM      4  C   UNL     1      51.839 160.965  31.844  0.00  0.00    +0.040 C 
ATOM      5  C   UNL     1      51.808 162.075  32.796  0.00  0.00    +0.076 C 
ATOM      6  C   UNL     1      50.600 162.101  33.694  0.00  0.00    +0.020 C 
ATOM      7  C   UNL     1      49.392 161.942  32.796  0.00  0.00    +0.002 C 
ATOM      8  N   UNL     1      51.832 163.328  32.048  0.00  0.00    -0.302 N 
ATOM      9  C   UNL     1      52.674 163.463  30.899  0.00  0.00    +0.246 C 
ATOM     10  O   UNL     1      53.031 164.610  30.499  0.00  0.00    -0.270 OA
ATOM     11  C   UNL     1      53.091 162.248  30.227  0.00  0.00    +0.053 C 
ATOM     12  C   UNL     1      52.695 161.074  30.678  0.00  0.00    -0.020 C 
ATOM     13  C   UNL     1      50.755 158.832  31.048  0.00  0.00    +0.000 C 
ATOM     14  C   UNL     1      49.685 158.658  30.006  0.00  0.00    +0.000 C 
ATOM     15  C   UNL     1      48.362 159.223  30.376  0.00  0.00    +0.000 C 
ATOM     16  C   UNL     1      47.400 158.265  30.974  0.00  0.00    +0.000 C 
ATOM     17  C   UNL     1      46.806 159.033  32.157  0.00  0.00    +0.000 C 
ATOM     18  C   UNL     1      46.929 160.495  31.728  0.00  0.00    +0.000 C 
ATOM     19  H   UNL     1      51.268 164.082  32.335  0.00  0.00    +0.150 HD
ENDROOT
TORSDOF 0
