REMARK  Name = =
REMARK  6 active torsions:
REMARK  status: ('A' for Active; 'I' for Inactive)
REMARK    1  A    between atoms: C_1  and  O_19
REMARK    2  A    between atoms: O_19  and  P_21
REMARK    3  A    between atoms: P_21  and  O_23
REMARK    4  A    between atoms: O_23  and  P_24
REMARK    5  A    between atoms: P_24  and  O_26
REMARK    6  A    between atoms: P_24  and  O_27
REMARK                            x       y       z     vdW  Elec       q    Type
REMARK                         _______ _______ _______ _____ _____    ______ ____
ROOT
ATOM      1  C   UNL     1      48.016 160.587  30.760  0.00  0.00    +0.102 C 
ATOM      2  C   UNL     1      49.296 160.837  31.461  0.00  0.00    +0.026 C 
ATOM      3  C   UNL     1      50.514 160.859  30.686  0.00  0.00    +0.008 C 
ATOM      4  C   UNL     1      51.771 161.052  31.452  0.00  0.00    +0.040 C 
ATOM      5  C   UNL     1      51.609 162.000  32.569  0.00  0.00    +0.076 C 
ATOM      6  C   UNL     1      50.522 161.625  33.490  0.00  0.00    +0.020 C 
ATOM      7  C   UNL     1      49.201 161.374  32.807  0.00  0.00    +0.004 C 
ATOM      8  N   UNL     1      51.683 163.349  32.143  0.00  0.00    -0.302 N 
ATOM      9  C   UNL     1      52.778 163.735  31.308  0.00  0.00    +0.246 C 
ATOM     10  O   UNL     1      53.213 164.911  31.250  0.00  0.00    -0.270 OA
ATOM     11  C   UNL     1      53.390 162.677  30.501  0.00  0.00    +0.053 C 
ATOM     12  C   UNL     1      52.901 161.456  30.591  0.00  0.00    -0.020 C 
ATOM     13  C   UNL     1      50.682 159.542  29.906  0.00  0.00    +0.001 C 
ATOM     14  C   UNL     1      49.416 159.331  29.123  0.00  0.00    +0.002 C 
ATOM     15  C   UNL     1      48.210 159.224  30.031  0.00  0.00    +0.025 C 
ATOM     16  C   UNL     1      48.462 158.346  31.239  0.00  0.00    +0.002 C 
ATOM     17  C   UNL     1      47.249 158.732  32.096  0.00  0.00    +0.003 C 
ATOM     18  C   UNL     1      46.910 160.155  31.701  0.00  0.00    +0.028 C 
ATOM     19  H   UNL     1      50.999 164.003  32.414  0.00  0.00    +0.150 HD
ENDROOT
BRANCH   1  20
ATOM     20  O   UNL     1      47.641 161.474  29.823  0.00  0.00    -0.291 OA
BRANCH  20  22
ATOM     21  S   UNL     1      46.657 163.676  31.133  0.00  0.00    +0.040 S 
ATOM     22  P   UNL     1      46.325 162.418  29.995  0.00  0.00    +0.411 P 
ATOM     23  O   UNL     1      45.059 161.735  30.445  0.00  0.00    -0.245 OA
BRANCH  22  24
ATOM     24  O   UNL     1      45.915 163.226  28.535  0.00  0.00    -0.200 OA
BRANCH  24  25
ATOM     25  P   UNL     1      44.474 164.078  28.782  0.00  0.00    +0.480 P 
ATOM     26  O   UNL     1      44.668 165.484  28.251  0.00  0.00    -0.227 OA
BRANCH  25  27
ATOM     27  O   UNL     1      43.199 163.319  27.973  0.00  0.00    -0.302 OA
ATOM     28  H   UNL     1      43.084 162.421  28.321  0.00  0.00    +0.222 HD
ENDBRANCH  25  27
BRANCH  25  29
ATOM     29  O   UNL     1      44.168 164.197  30.439  0.00  0.00    -0.302 OA
ATOM     30  H   UNL     1      44.915 164.636  30.875  0.00  0.00    +0.222 HD
ENDBRANCH  25  29
ENDBRANCH  24  25
ENDBRANCH  22  24
ENDBRANCH  20  22
ENDBRANCH   1  20
TORSDOF 6
