REMARK  Name = =
REMARK  4 active torsions:
REMARK  status: ('A' for Active; 'I' for Inactive)
REMARK    1  A    between atoms: C_2  and  N_21
REMARK    2  A    between atoms: C_15  and  O_20
REMARK    3  A    between atoms: N_21  and  CA_22
REMARK    4  A    between atoms: CA_22  and  C_24
REMARK                            x       y       z     vdW  Elec       q    Type
REMARK                         _______ _______ _______ _____ _____    ______ ____
ROOT
ATOM      1  N   UNK A   0      50.578 160.623  30.353  0.00  0.00    -0.258 NA
ATOM      2  C   UNK A   0      51.399 161.134  31.348  0.00  0.00    +0.116 C 
ATOM      3  C   UNK A   0      50.816 160.348  32.548  0.00  0.00    +0.040 C 
ATOM      4  C   UNK A   0      49.313 160.553  32.237  0.00  0.00    +0.053 C 
ATOM      5  C   UNK A   0      49.230 160.869  30.792  0.00  0.00    +0.068 C 
ATOM      6  C   UNK A   0      48.316 160.092  29.956  0.00  0.00    +0.037 C 
ATOM      7  C   UNK A   0      47.120 159.506  30.601  0.00  0.00    +0.007 C 
ATOM      8  C   UNK A   0      47.124 159.528  32.091  0.00  0.00    +0.020 C 
ATOM      9  C   UNK A   0      48.522 159.336  32.637  0.00  0.00    +0.074 C 
ATOM     10  N   UNK A   0      48.432 159.504  34.073  0.00  0.00    -0.334 N 
ATOM     11  C   UNK A   0      48.360 160.906  34.287  0.00  0.00    +0.044 C 
ATOM     12  C   UNK A   0      48.864 161.573  33.176  0.00  0.00    -0.007 C 
ATOM     13  C   UNK A   0      48.852 162.947  33.219  0.00  0.00    +0.000 C 
ATOM     14  C   UNK A   0      48.357 163.632  34.328  0.00  0.00    +0.036 C 
ATOM     15  C   UNK A   0      47.864 162.940  35.417  0.00  0.00    +0.135 C 
ATOM     16  C   UNK A   0      47.867 161.581  35.393  0.00  0.00    +0.051 C 
ATOM     17  C   UNK A   0      48.883 159.294  28.867  0.00  0.00    -0.028 C 
ATOM     18  C   UNK A   0      50.082 159.564  28.385  0.00  0.00    -0.013 C 
ATOM     19  C   UNK A   0      50.840 160.704  28.987  0.00  0.00    +0.099 C 
ATOM     20  H   UNK A   0      48.423 158.796  34.757  0.00  0.00    +0.147 HD
ENDROOT
BRANCH  15  21
ATOM     21  O   UNK A   0      47.370 163.636  36.533  0.00  0.00    -0.505 OA
ATOM     22  H   UNK A   0      47.372 164.573  36.540  0.00  0.00    +0.292 HD
ENDBRANCH  15  21
BRANCH   2  23
ATOM     23  N   ALA A   1      52.799 160.907  31.217  0.00  0.00    -0.281 NA
ATOM     24  H   ALA A   1      52.943 160.322  30.394  0.00  0.00    +0.125 HD
BRANCH  23  25
ATOM     25  CA  ALA A   1      53.618 162.068  31.075  0.00  0.00    +0.121 C 
ATOM     26  CB  ALA A   1      54.815 162.089  32.001  0.00  0.00    +0.026 C 
BRANCH  25  27
ATOM     27  C   ALA A   1      52.920 163.356  31.108  0.00  0.00    +0.223 C 
ATOM     28  O   ALA A   1      52.974 164.107  30.157  0.00  0.00    -0.287 OA
ENDBRANCH  25  27
ENDBRANCH  23  25
ENDBRANCH   2  23
TORSDOF 4
