REMARK  Name = =
REMARK  8 active torsions:
REMARK  status: ('A' for Active; 'I' for Inactive)
REMARK    1  A    between atoms: S_20  and  O_24
REMARK    2  A    between atoms: P_21  and  O_30
REMARK    3  A    between atoms: O_24  and  C_25
REMARK    4  A    between atoms: C_25  and  O_27
REMARK    5  A    between atoms: O_27  and  C_28
REMARK    6  A    between atoms: O_30  and  P_31
REMARK    7  A    between atoms: P_31  and  O_33
REMARK    8  A    between atoms: P_31  and  O_34
REMARK                            x       y       z     vdW  Elec       q    Type
REMARK                         _______ _______ _______ _____ _____    ______ ____
ROOT
ATOM      1  C   UNL     1      50.248 161.629  32.027  0.00  0.00    +0.112 C 
ATOM      2  C   UNL     1      51.684 161.736  31.532  0.00  0.00    +0.027 C 
ATOM      3  C   UNL     1      52.507 160.748  32.278  0.00  0.00    +0.008 C 
ATOM      4  C   UNL     1      53.954 160.961  31.900  0.00  0.00    +0.040 C 
ATOM      5  C   UNL     1      54.105 160.504  30.482  0.00  0.00    +0.076 C 
ATOM      6  C   UNL     1      52.818 160.377  29.738  0.00  0.00    +0.020 C 
ATOM      7  C   UNL     1      51.796 161.426  30.054  0.00  0.00    +0.004 C 
ATOM      8  N   UNL     1      55.120 161.195  29.754  0.00  0.00    -0.302 N 
ATOM      9  C   UNL     1      55.489 162.539  30.034  0.00  0.00    +0.246 C 
ATOM     10  O   UNL     1      56.161 163.232  29.218  0.00  0.00    -0.270 OA
ATOM     11  C   UNL     1      55.062 163.100  31.310  0.00  0.00    +0.053 C 
ATOM     12  C   UNL     1      54.363 162.347  32.133  0.00  0.00    -0.020 C 
ATOM     13  C   UNL     1      52.245 160.633  33.720  0.00  0.00    +0.001 C 
ATOM     14  C   UNL     1      51.302 161.608  34.312  0.00  0.00    +0.002 C 
ATOM     15  C   UNL     1      50.216 162.103  33.430  0.00  0.00    +0.026 C 
ATOM     16  C   UNL     1      50.369 163.608  33.295  0.00  0.00    +0.003 C 
ATOM     17  C   UNL     1      50.051 163.956  31.869  0.00  0.00    +0.015 C 
ATOM     18  C   UNL     1      49.462 162.674  31.278  0.00  0.00    +0.097 C 
ATOM     19  O   UNL     1      49.831 160.348  31.815  0.00  0.00    -0.290 OA
ATOM     20  S   UNL     1      47.548 161.822  30.595  0.00  0.00    +0.015 S 
ATOM     21  P   UNL     1      48.397 160.144  31.030  0.00  0.00    +0.413 P 
ATOM     22  O   UNL     1      47.410 159.514  32.023  0.00  0.00    -0.244 OA
ATOM     23  H   UNL     1      47.379 162.450  31.852  0.00  0.00    +0.134 HD
ATOM     24  H   UNL     1      55.584 160.721  29.027  0.00  0.00    +0.150 HD
ENDROOT
BRANCH  20  25
ATOM     25  O   UNL     1      45.927 161.382  30.113  0.00  0.00    -0.374 OA
BRANCH  25  26
ATOM     26  C   UNL     1      45.039 162.345  29.662  0.00  0.00    +0.529 C 
ATOM     27  O   UNL     1      45.523 163.391  29.177  0.00  0.00    -0.201 OA
BRANCH  26  28
ATOM     28  O   UNL     1      43.657 162.204  29.725  0.00  0.00    -0.352 OA
BRANCH  28  29
ATOM     29  C   UNL     1      42.792 163.280  29.691  0.00  0.00    +0.427 C 
ATOM     30  O   UNL     1      43.256 164.441  29.695  0.00  0.00    -0.237 OA
ENDBRANCH  28  29
ENDBRANCH  26  28
ENDBRANCH  25  26
ENDBRANCH  20  25
BRANCH  21  31
ATOM     31  O   UNL     1      48.445 159.166  29.685  0.00  0.00    -0.199 OA
BRANCH  31  32
ATOM     32  P   UNL     1      49.097 157.641  29.981  0.00  0.00    +0.480 P 
ATOM     33  O   UNL     1      48.252 156.562  29.309  0.00  0.00    -0.227 OA
BRANCH  32  34
ATOM     34  O   UNL     1      49.325 157.332  31.608  0.00  0.00    -0.302 OA
ATOM     35  H   UNL     1      48.470 157.359  32.065  0.00  0.00    +0.222 HD
ENDBRANCH  32  34
BRANCH  32  36
ATOM     36  O   UNL     1      50.614 157.589  29.193  0.00  0.00    -0.302 OA
ATOM     37  H   UNL     1      51.202 158.258  29.578  0.00  0.00    +0.222 HD
ENDBRANCH  32  36
ENDBRANCH  31  32
ENDBRANCH  21  31
TORSDOF 8
