REMARK  Name = =
REMARK  2 active torsions:
REMARK  status: ('A' for Active; 'I' for Inactive)
REMARK    1  A    between atoms: C_9  and  O_13
REMARK    2  A    between atoms: C_11  and  O_12
REMARK                            x       y       z     vdW  Elec       q    Type
REMARK                         _______ _______ _______ _____ _____    ______ ____
ROOT
ATOM      1  O   UNL     1      -4.196  -4.121  30.615  0.00  0.00    -0.475 OA
ATOM      2  C   UNL     1      -5.247  -3.626  31.423  0.00  0.00    +0.214 C 
ATOM      3  C   UNL     1      -4.808  -2.326  32.103  0.00  0.00    +0.117 C 
ATOM      4  C   UNL     1      -4.343  -1.432  31.002  0.00  0.00    +0.183 C 
ATOM      5  O   UNL     1      -4.727  -0.243  30.883  0.00  0.00    -0.291 OA
ATOM      6  C   UNL     1      -3.405  -1.958  30.022  0.00  0.00    +0.103 C 
ATOM      7  C   UNL     1      -3.365  -3.341  29.859  0.00  0.00    +0.147 C 
ATOM      8  C   UNL     1      -2.473  -3.868  28.926  0.00  0.00    +0.074 C 
ATOM      9  C   UNL     1      -1.645  -3.061  28.175  0.00  0.00    +0.140 C 
ATOM     10  C   UNL     1      -1.692  -1.691  28.345  0.00  0.00    +0.073 C 
ATOM     11  C   UNL     1      -2.575  -1.152  29.270  0.00  0.00    +0.142 C 
ENDROOT
BRANCH  11  12
ATOM     12  O   UNL     1      -2.670   0.219  29.487  0.00  0.00    -0.505 OA
ATOM     13  H   UNL     1      -2.128   0.809  29.001  0.00  0.00    +0.292 HD
ENDBRANCH  11  12
BRANCH   9  14
ATOM     14  O   UNL     1      -0.790  -3.675  27.272  0.00  0.00    -0.505 OA
ATOM     15  H   UNL     1      -0.214  -3.157  26.746  0.00  0.00    +0.292 HD
ENDBRANCH   9  14
TORSDOF 2
