REMARK  Name = =
REMARK  3 active torsions:
REMARK  status: ('A' for Active; 'I' for Inactive)
REMARK    1  A    between atoms: C_2  and  N_12
REMARK    2  A    between atoms: C_9  and  O_21
REMARK    3  A    between atoms: C_11  and  O_20
REMARK                            x       y       z     vdW  Elec       q    Type
REMARK                         _______ _______ _______ _____ _____    ______ ____
ROOT
ATOM      1  O   UNL     1      -2.462  -4.097  30.035  0.00  0.00    -0.459 OA
ATOM      2  C   UNL     1      -3.582  -4.574  30.752  0.00  0.00    +0.260 C 
ATOM      3  C   UNL     1      -3.945  -3.509  31.786  0.00  0.00    +0.135 C 
ATOM      4  C   UNL     1      -4.246  -2.270  31.008  0.00  0.00    +0.184 C 
ATOM      5  O   UNL     1      -5.280  -1.602  31.162  0.00  0.00    -0.291 OA
ATOM      6  C   UNL     1      -3.258  -1.851  30.028  0.00  0.00    +0.103 C 
ATOM      7  C   UNL     1      -2.366  -2.819  29.557  0.00  0.00    +0.149 C 
ATOM      8  C   UNL     1      -1.441  -2.391  28.629  0.00  0.00    +0.074 C 
ATOM      9  C   UNL     1      -1.380  -1.094  28.176  0.00  0.00    +0.140 C 
ATOM     10  C   UNL     1      -2.281  -0.169  28.667  0.00  0.00    +0.073 C 
ATOM     11  C   UNL     1      -3.213  -0.548  29.586  0.00  0.00    +0.142 C 
ENDROOT
BRANCH   2  12
ATOM     12  N   UNL     1      -3.267  -5.839  31.394  0.00  0.00    -0.195 N 
ATOM     13  C   UNL     1      -2.151  -6.629  31.000  0.00  0.00    +0.234 C 
ATOM     14  O   UNL     1      -1.624  -6.458  29.880  0.00  0.00    -0.274 OA
ATOM     15  C   UNL     1      -1.658  -7.639  31.960  0.00  0.00    +0.086 C 
ATOM     16  C   UNL     1      -2.719  -8.425  32.640  0.00  0.00    +0.019 C 
ATOM     17  C   UNL     1      -4.070  -7.804  32.668  0.00  0.00    +0.086 C 
ATOM     18  C   UNL     1      -4.074  -6.341  32.451  0.00  0.00    +0.234 C 
ATOM     19  O   UNL     1      -4.746  -5.530  33.148  0.00  0.00    -0.274 OA
ENDBRANCH   2  12
BRANCH  11  20
ATOM     20  O   UNL     1      -4.128   0.357  30.095  0.00  0.00    -0.505 OA
ATOM     21  H   UNL     1      -4.115   1.249  29.808  0.00  0.00    +0.292 HD
ENDBRANCH  11  20
BRANCH   9  22
ATOM     22  O   UNL     1      -0.458  -0.645  27.243  0.00  0.00    -0.505 OA
ATOM     23  H   UNL     1       0.172  -1.238  26.883  0.00  0.00    +0.292 HD
ENDBRANCH   9  22
TORSDOF 3
