REMARK  Name = =
REMARK  4 active torsions:
REMARK  status: ('A' for Active; 'I' for Inactive)
REMARK    1  A    between atoms: C_2  and  N_12
REMARK    2  A    between atoms: C_9  and  O_28
REMARK    3  A    between atoms: C_11  and  O_27
REMARK    4  A    between atoms: C_17  and  N_20
REMARK                            x       y       z     vdW  Elec       q    Type
REMARK                         _______ _______ _______ _____ _____    ______ ____
ROOT
ATOM      1  O   UNL     1      -1.393  -6.154  28.744  0.00  0.00    -0.459 OA
ATOM      2  C   UNL     1      -0.952  -4.854  28.474  0.00  0.00    +0.260 C 
ATOM      3  C   UNL     1      -1.551  -3.781  29.321  0.00  0.00    +0.135 C 
ATOM      4  C   UNL     1      -2.285  -4.312  30.498  0.00  0.00    +0.184 C 
ATOM      5  O   UNL     1      -2.925  -3.486  31.193  0.00  0.00    -0.291 OA
ATOM      6  C   UNL     1      -2.290  -5.708  30.866  0.00  0.00    +0.103 C 
ATOM      7  C   UNL     1      -1.833  -6.632  29.964  0.00  0.00    +0.149 C 
ATOM      8  C   UNL     1      -1.827  -7.974  30.288  0.00  0.00    +0.074 C 
ATOM      9  C   UNL     1      -2.274  -8.414  31.517  0.00  0.00    +0.140 C 
ATOM     10  C   UNL     1      -2.730  -7.475  32.414  0.00  0.00    +0.073 C 
ATOM     11  C   UNL     1      -2.736  -6.118  32.086  0.00  0.00    +0.142 C 
ENDROOT
BRANCH   2  12
ATOM     12  N   UNL     1       0.487  -4.828  28.442  0.00  0.00    -0.194 N 
ATOM     13  C   UNL     1       1.229  -5.791  29.176  0.00  0.00    +0.234 C 
ATOM     14  O   UNL     1       0.790  -6.233  30.270  0.00  0.00    -0.274 OA
ATOM     15  C   UNL     1       2.541  -6.317  28.693  0.00  0.00    +0.088 C 
ATOM     16  C   UNL     1       2.952  -5.562  27.451  0.00  0.00    +0.035 C 
ATOM     17  C   UNL     1       2.712  -4.097  27.695  0.00  0.00    +0.136 C 
ATOM     18  C   UNL     1       1.250  -3.861  27.689  0.00  0.00    +0.248 C 
ATOM     19  O   UNL     1       0.658  -2.941  27.115  0.00  0.00    -0.273 OA
BRANCH  17  20
ATOM     20  N   UNL     1       3.441  -3.245  26.809  0.00  0.00    -0.265 NA
ATOM     21  C   UNL     1       3.046  -3.314  25.440  0.00  0.00    +0.091 C 
ATOM     22  C   UNL     1       4.164  -3.024  24.464  0.00  0.00    +0.106 C 
ATOM     23  N   UNL     1       4.701  -1.730  24.773  0.00  0.00    -0.217 NA
ATOM     24  C   UNL     1       5.899  -1.749  25.554  0.00  0.00    +0.090 C 
ATOM     25  C   UNL     1       5.662  -2.216  26.971  0.00  0.00    +0.036 C 
ATOM     26  C   UNL     1       4.857  -3.493  27.030  0.00  0.00    +0.074 C 
ENDBRANCH  17  20
ENDBRANCH   2  12
BRANCH  11  27
ATOM     27  O   UNL     1      -3.201  -5.197  33.010  0.00  0.00    -0.505 OA
ATOM     28  H   UNL     1      -3.209  -4.284  32.799  0.00  0.00    +0.292 HD
ENDBRANCH  11  27
BRANCH   9  29
ATOM     29  O   UNL     1      -2.259  -9.784  31.830  0.00  0.00    -0.505 OA
ATOM     30  H   UNL     1      -1.944 -10.404  31.203  0.00  0.00    +0.292 HD
ENDBRANCH   9  29
TORSDOF 4
