REMARK  Name = =
REMARK  6 active torsions:
REMARK  status: ('A' for Active; 'I' for Inactive)
REMARK    1  A    between atoms: C_2  and  N_12
REMARK    2  A    between atoms: C_9  and  O_27
REMARK    3  A    between atoms: C_11  and  O_28
REMARK    4  A    between atoms: C_17  and  N_20
REMARK    5  A    between atoms: O_28  and  C_29
REMARK    6  A    between atoms: C_30  and  S_36
REMARK                            x       y       z     vdW  Elec       q    Type
REMARK                         _______ _______ _______ _____ _____    ______ ____
ROOT
ATOM      1  O   UNL     1       1.255  -4.863  28.687  0.00  0.00    -0.459 OA
ATOM      2  C   UNL     1       0.792  -4.396  27.429  0.00  0.00    +0.260 C 
ATOM      3  C   UNL     1      -0.338  -3.426  27.581  0.00  0.00    +0.135 C 
ATOM      4  C   UNL     1      -1.194  -3.779  28.735  0.00  0.00    +0.184 C 
ATOM      5  O   UNL     1      -2.280  -3.141  28.959  0.00  0.00    -0.291 OA
ATOM      6  C   UNL     1      -0.891  -4.830  29.673  0.00  0.00    +0.103 C 
ATOM      7  C   UNL     1       0.377  -5.378  29.634  0.00  0.00    +0.149 C 
ATOM      8  C   UNL     1       0.730  -6.384  30.501  0.00  0.00    +0.074 C 
ATOM      9  C   UNL     1      -0.188  -6.855  31.423  0.00  0.00    +0.140 C 
ATOM     10  C   UNL     1      -1.448  -6.282  31.432  0.00  0.00    +0.074 C 
ATOM     11  C   UNL     1      -1.841  -5.277  30.584  0.00  0.00    +0.151 C 
ENDROOT
BRANCH   2  12
ATOM     12  N   UNL     1       1.942  -3.824  26.774  0.00  0.00    -0.194 N 
ATOM     13  C   UNL     1       2.541  -2.650  27.305  0.00  0.00    +0.234 C 
ATOM     14  O   UNL     1       2.283  -2.252  28.490  0.00  0.00    -0.274 OA
ATOM     15  C   UNL     1       3.498  -1.791  26.557  0.00  0.00    +0.088 C 
ATOM     16  C   UNL     1       3.493  -2.258  25.096  0.00  0.00    +0.035 C 
ATOM     17  C   UNL     1       3.773  -3.732  25.125  0.00  0.00    +0.136 C 
ATOM     18  C   UNL     1       2.517  -4.382  25.607  0.00  0.00    +0.248 C 
ATOM     19  O   UNL     1       1.969  -5.352  25.059  0.00  0.00    -0.273 OA
BRANCH  17  20
ATOM     20  N   UNL     1       4.125  -4.318  23.875  0.00  0.00    -0.265 NA
ATOM     21  C   UNL     1       3.616  -3.811  22.745  0.00  0.00    +0.091 C 
ATOM     22  C   UNL     1       3.065  -3.259  21.579  0.00  0.00    +0.106 C 
ATOM     23  N   UNL     1       4.249  -2.934  20.709  0.00  0.00    -0.217 NA
ATOM     24  C   UNL     1       5.478  -2.861  21.503  0.00  0.00    +0.090 C 
ATOM     25  C   UNL     1       6.000  -3.945  22.285  0.00  0.00    +0.036 C 
ATOM     26  C   UNL     1       5.613  -4.283  23.702  0.00  0.00    +0.074 C 
ENDBRANCH  17  20
ENDBRANCH   2  12
BRANCH   9  27
ATOM     27  O   UNL     1       0.180  -7.882  32.304  0.00  0.00    -0.505 OA
ATOM     28  H   UNL     1       1.043  -8.244  32.267  0.00  0.00    +0.292 HD
ENDBRANCH   9  27
BRANCH  11  29
ATOM     29  O   UNL     1      -3.073  -4.687  30.565  0.00  0.00    -0.442 OA
BRANCH  29  30
ATOM     30  C   UNL     1      -3.633  -3.799  31.483  0.00  0.00    +0.365 C 
ATOM     31  C   UNL     1      -4.878  -4.348  32.135  0.00  0.00    +0.210 C 
ATOM     32  C   UNL     1      -5.718  -3.320  32.804  0.00  0.00    +0.043 C 
ATOM     33  C   UNL     1      -5.999  -2.088  32.016  0.00  0.00    +0.112 C 
ATOM     34  C   UNL     1      -4.750  -1.612  31.390  0.00  0.00    +0.320 C 
ATOM     35  O   UNL     1      -4.465  -0.387  31.314  0.00  0.00    -0.250 OA
ATOM     36  O   UNL     1      -3.873  -2.539  30.876  0.00  0.00    -0.412 OA
BRANCH  31  37
ATOM     37  S   UNL     1      -4.483  -5.616  33.317  0.00  0.00    -0.025 S 
ATOM     38  O   UNL     1      -3.203  -5.211  34.005  0.00  0.00    -0.176 OA
ATOM     39  O   UNL     1      -4.253  -6.940  32.643  0.00  0.00    -0.176 OA
ATOM     40  H   UNL     1      -5.518  -5.750  34.189  0.00  0.00    +0.210 HD
ENDBRANCH  31  37
ENDBRANCH  29  30
ENDBRANCH  11  29
TORSDOF 6
