REMARK  Name = =
REMARK  4 active torsions:
REMARK  status: ('A' for Active; 'I' for Inactive)
REMARK    1  A    between atoms: C_1  and  S_19
REMARK    2  A    between atoms: S_19  and  C_20
REMARK    3  A    between atoms: C_20  and  N_22
REMARK    4  A    between atoms: N_22  and  O_23
REMARK                            x       y       z     vdW  Elec       q    Type
REMARK                         _______ _______ _______ _____ _____    ______ ____
ROOT
ATOM      1  C   UNL     1      50.504 158.297  30.634  0.00  0.00    +0.094 C 
ATOM      2  C   UNL     1      50.517 159.455  29.699  0.00  0.00    +0.015 C 
ATOM      3  C   UNL     1      51.217 160.619  30.405  0.00  0.00    +0.003 C 
ATOM      4  C   UNL     1      50.686 160.901  31.760  0.00  0.00    +0.022 C 
ATOM      5  C   UNL     1      49.587 160.004  32.216  0.00  0.00    +0.062 C 
ATOM      6  C   UNL     1      49.419 160.183  33.700  0.00  0.00    +0.025 C 
ATOM      7  C   UNL     1      50.558 161.070  34.186  0.00  0.00    +0.069 C 
ATOM      8  N   UNL     1      50.565 162.375  33.590  0.00  0.00    -0.298 NA
ATOM      9  C   UNL     1      50.410 162.302  32.123  0.00  0.00    +0.059 C 
ATOM     10  C   UNL     1      49.069 162.882  31.797  0.00  0.00    +0.042 C 
ATOM     11  C   UNL     1      48.119 161.834  31.357  0.00  0.00    -0.022 C 
ATOM     12  C   UNL     1      48.359 160.508  31.530  0.00  0.00    +0.011 C 
ATOM     13  C   UNL     1      47.576 159.456  31.142  0.00  0.00    +0.134 C 
ATOM     14  C   UNL     1      46.397 159.790  30.503  0.00  0.00    +0.037 C 
ATOM     15  C   UNL     1      46.067 161.114  30.285  0.00  0.00    +0.003 C 
ATOM     16  C   UNL     1      46.923 162.142  30.710  0.00  0.00    -0.004 C 
ATOM     17  O   UNL     1      48.217 158.254  31.516  0.00  0.00    -0.478 OA
ATOM     18  C   UNL     1      49.594 158.595  31.794  0.00  0.00    +0.180 C 
ATOM     19  H   UNL     1      51.450 162.834  33.807  0.00  0.00    +0.123 HD
ENDROOT
BRANCH   1  20
ATOM     20  S   UNL     1      50.020 156.733  29.904  0.00  0.00    -0.088 S 
BRANCH  20  21
ATOM     21  C   UNL     1      51.320 155.988  28.981  0.00  0.00    +0.130 C 
ATOM     22  S   UNL     1      51.006 154.549  28.238  0.00  0.00    -0.026 S 
BRANCH  21  23
ATOM     23  N   UNL     1      52.604 156.562  28.852  0.00  0.00    -0.215 N 
ATOM     24  H   UNL     1      52.809 157.405  29.317  0.00  0.00    +0.180 HD
BRANCH  23  25
ATOM     25  O   UNL     1      53.562 155.963  28.092  0.00  0.00    -0.297 OA
ATOM     26  H   UNL     1      53.205 155.148  27.705  0.00  0.00    +0.241 HD
ENDBRANCH  23  25
ENDBRANCH  21  23
ENDBRANCH  20  21
ENDBRANCH   1  20
TORSDOF 4
