REMARK  Name = =
REMARK  0 active torsions:
REMARK  status: ('A' for Active; 'I' for Inactive)
REMARK                            x       y       z     vdW  Elec       q    Type
REMARK                         _______ _______ _______ _____ _____    ______ ____
ROOT
ATOM      1  N   UNL     1       2.917  -2.946  35.084  0.00  0.00    -0.297 NA
ATOM      2  C   UNL     1       2.842  -3.861  33.942  0.00  0.00    +0.069 C 
ATOM      3  C   UNL     1       3.920  -4.897  34.165  0.00  0.00    +0.019 C 
ATOM      4  C   UNL     1       4.625  -4.391  35.432  0.00  0.00    +0.019 C 
ATOM      5  C   UNL     1       4.382  -2.888  35.234  0.00  0.00    +0.069 C 
ATOM      6  H   UNL     1       2.518  -2.032  34.869  0.00  0.00    +0.123 HD
ENDROOT
TORSDOF 0
