REMARK  Name = =
REMARK  5 active torsions:
REMARK  status: ('A' for Active; 'I' for Inactive)
REMARK    1  A    between atoms: C_1  and  C_27
REMARK    2  A    between atoms: C_2  and  N_7
REMARK    3  A    between atoms: C_3  and  O_38
REMARK    4  A    between atoms: C_15  and  C_16
REMARK    5  A    between atoms: C_23  and  C_28
REMARK                            x       y       z     vdW  Elec       q    Type
REMARK                         _______ _______ _______ _____ _____    ______ ____
ROOT
ATOM      1  C   UNL     1       2.356 -12.658  21.710  0.00  0.00    +0.098 C 
ATOM      2  C   UNL     1       1.064 -12.281  21.940  0.00  0.00    +0.107 C 
ATOM      3  C   UNL     1       0.531 -11.233  21.245  0.00  0.00    +0.150 C 
ATOM      4  C   UNL     1       1.279 -10.559  20.326  0.00  0.00    +0.059 C 
ATOM      5  C   UNL     1       2.575 -10.930  20.093  0.00  0.00    +0.102 C 
ATOM      6  N   UNL     1       3.062 -11.952  20.783  0.00  0.00    -0.242 NA
ENDROOT
BRANCH   2   7
ATOM      7  N   UNL     1       0.301 -13.006  22.859  0.00  0.00    -0.261 N 
ATOM      8  C   UNL     1      -0.437 -14.092  22.690  0.00  0.00    +0.052 C 
ATOM      9  C   UNL     1      -1.023 -14.437  23.921  0.00  0.00    +0.015 C 
ATOM     10  C   UNL     1      -0.602 -13.506  24.844  0.00  0.00    +0.018 C 
ATOM     11  C   UNL     1       0.207 -12.648  24.157  0.00  0.00    +0.070 C 
ATOM     12  C   UNL     1      -1.836 -15.551  24.043  0.00  0.00    +0.001 C 
ATOM     13  C   UNL     1      -2.102 -16.365  22.967  0.00  0.00    -0.000 C 
ATOM     14  C   UNL     1      -1.528 -16.031  21.760  0.00  0.00    -0.003 C 
ATOM     15  C   UNL     1      -0.708 -14.925  21.588  0.00  0.00    -0.005 C 
BRANCH  15  16
ATOM     16  C   UNL     1      -0.173 -14.680  20.252  0.00  0.00    +0.045 C 
ATOM     17  C   UNL     1      -0.129 -15.965  19.424  0.00  0.00    -0.027 C 
ATOM     18  C   UNL     1      -1.267 -16.253  18.569  0.00  0.00    -0.030 C 
ATOM     19  C   UNL     1      -2.490 -15.434  18.583  0.00  0.00    +0.026 C 
ATOM     20  C   UNL     1      -2.402 -14.096  19.265  0.00  0.00    +0.005 C 
ATOM     21  C   UNL     1      -0.970 -13.660  19.419  0.00  0.00    +0.009 C 
ENDBRANCH  15  16
ENDBRANCH   2   7
BRANCH   1  27
ATOM     22  C   UNL     1       3.823 -13.315  23.472  0.00  0.00    -0.001 C 
ATOM     23  C   UNL     1       5.081 -13.572  23.740  0.00  0.00    +0.116 C 
ATOM     24  N   UNL     1       5.801 -14.388  22.840  0.00  0.00    -0.326 N 
ATOM     25  C   UNL     1       5.168 -14.907  21.685  0.00  0.00    +0.058 C 
ATOM     26  C   UNL     1       3.897 -14.628  21.449  0.00  0.00    +0.017 C 
ATOM     27  C   UNL     1       3.066 -13.814  22.284  0.00  0.00    +0.018 C 
ATOM     28  H   UNL     1       6.747 -14.597  23.016  0.00  0.00    +0.147 HD
BRANCH  23  29
ATOM     29  C   UNL     1       5.754 -13.065  24.960  0.00  0.00    +0.019 C 
ATOM     30  C   UNL     1       6.527 -13.853  25.772  0.00  0.00    +0.098 C 
ATOM     31  N   UNL     1       7.133 -13.356  26.887  0.00  0.00    -0.225 NA
ATOM     32  C   UNL     1       7.021 -12.078  27.266  0.00  0.00    +0.165 C 
ATOM     33  N   UNL     1       7.600 -11.541  28.350  0.00  0.00    -0.205 NA
ATOM     34  C   UNL     1       7.484 -10.261  28.719  0.00  0.00    +0.200 C 
ATOM     35  N   UNL     1       6.730  -9.432  27.958  0.00  0.00    -0.222 NA
ATOM     36  C   UNL     1       6.135  -9.934  26.865  0.00  0.00    +0.104 C 
ATOM     37  C   UNL     1       6.254 -11.262  26.478  0.00  0.00    +0.055 C 
ATOM     38  C   UNL     1       5.620 -11.732  25.334  0.00  0.00    +0.004 C 
ENDBRANCH  23  29
ENDBRANCH   1  27
BRANCH   3  39
ATOM     39  O   UNL     1      -0.788 -10.804  21.431  0.00  0.00    -0.504 OA
ATOM     40  H   UNL     1      -1.339 -11.238  22.053  0.00  0.00    +0.292 HD
ENDBRANCH   3  39
TORSDOF 5
