MODEL 1
REMARK VINA RESULT:   -10.842      0.000      0.000
REMARK INTER + INTRA:         -15.350
REMARK INTER:                 -14.328
REMARK INTRA:                  -1.022
REMARK UNBOUND:                -1.022
REMARK  Name = =
REMARK  7 active torsions:
REMARK  status: ('A' for Active; 'I' for Inactive)
REMARK    1  A    between atoms: C_1  and  C_31
REMARK    2  A    between atoms: C_4  and  C_21
REMARK    3  A    between atoms: C_7  and  O_48
REMARK    4  A    between atoms: C_15  and  O_47
REMARK    5  A    between atoms: C_29  and  S_35
REMARK    6  A    between atoms: C_38  and  C_44
REMARK    7  A    between atoms: C_44  and  O_46
REMARK                            x       y       z     vdW  Elec       q    Type
REMARK                         _______ _______ _______ _____ _____    ______ ____
ROOT
ATOM      1  C   UNL     1      -0.215  -3.323  27.974  0.00  0.00    +0.032 C 
ATOM      2  C   UNL     1       0.906  -4.110  28.595  0.00  0.00    +0.006 C 
ATOM      3  C   UNL     1       0.474  -5.548  28.621  0.00  0.00    +0.014 C 
ATOM      4  C   UNL     1      -0.849  -5.760  29.297  0.00  0.00    +0.099 C 
ATOM      5  C   UNL     1      -1.612  -4.490  29.535  0.00  0.00    -0.015 C 
ATOM      6  C   UNL     1      -1.328  -3.298  28.912  0.00  0.00    +0.008 C 
ATOM      7  C   UNL     1      -2.116  -2.192  29.214  0.00  0.00    +0.132 C 
ATOM      8  C   UNL     1      -3.175  -2.250  30.120  0.00  0.00    +0.075 C 
ATOM      9  C   UNL     1      -3.446  -3.452  30.735  0.00  0.00    +0.045 C 
ATOM     10  C   UNL     1      -2.675  -4.549  30.444  0.00  0.00    -0.001 C 
ATOM     11  C   UNL     1      -4.547  -3.544  31.691  0.00  0.00    +0.196 C 
ATOM     12  O   UNL     1      -4.779  -4.648  32.242  0.00  0.00    -0.287 OA
ATOM     13  C   UNL     1      -5.358  -2.380  31.994  0.00  0.00    +0.045 C 
ATOM     14  C   UNL     1      -5.093  -1.183  31.386  0.00  0.00    +0.076 C 
ATOM     15  C   UNL     1      -5.836  -0.038  31.640  0.00  0.00    +0.137 C 
ATOM     16  C   UNL     1      -6.869  -0.150  32.544  0.00  0.00    +0.037 C 
ATOM     17  C   UNL     1      -7.171  -1.331  33.180  0.00  0.00    +0.003 C 
ATOM     18  C   UNL     1      -6.416  -2.451  32.906  0.00  0.00    +0.003 C 
ATOM     19  C   UNL     1      -3.990  -1.073  30.424  0.00  0.00    +0.202 C 
ATOM     20  O   UNL     1      -3.778   0.050  29.882  0.00  0.00    -0.286 OA
ENDROOT
BRANCH   4  21
ATOM     21  C   UNL     1      -0.516  -6.341  30.645  0.00  0.00    +0.229 C 
ATOM     22  O   UNL     1       0.468  -5.895  31.256  0.00  0.00    -0.275 OA
ATOM     23  N   UNL     1      -1.290  -7.369  31.223  0.00  0.00    -0.276 N 
ATOM     24  C   UNL     1      -2.441  -7.882  30.539  0.00  0.00    +0.110 C 
ATOM     25  C   UNL     1      -3.672  -7.987  31.428  0.00  0.00    +0.090 C 
ATOM     26  N   UNL     1      -3.345  -7.922  32.819  0.00  0.00    -0.295 NA
ATOM     27  C   UNL     1      -2.114  -8.629  33.108  0.00  0.00    +0.090 C 
ATOM     28  C   UNL     1      -0.923  -7.908  32.503  0.00  0.00    +0.110 C 
ATOM     29  H   UNL     1      -4.102  -8.341  33.357  0.00  0.00    +0.123 HD
ENDBRANCH   4  21
BRANCH   1  32
ATOM     30  C   UNL     1       2.148  -1.793  25.784  0.00  0.00    +0.038 C 
ATOM     31  C   UNL     1       0.841  -2.443  25.937  0.00  0.00    +0.017 C 
ATOM     32  C   UNL     1       0.218  -2.081  27.297  0.00  0.00    +0.063 C 
ATOM     33  C   UNL     1       1.344  -1.393  27.976  0.00  0.00    +0.151 C 
ATOM     34  O   UNL     1       1.613  -1.253  29.142  0.00  0.00    -0.296 OA
ATOM     35  C   UNL     1       2.248  -0.805  26.911  0.00  0.00    +0.074 C 
BRANCH  30  36
ATOM     36  S   UNL     1       2.406  -0.995  24.259  0.00  0.00    -0.207 S 
ATOM     37  C   UNL     1       0.993  -1.076  23.102  0.00  0.00    +0.066 C 
ATOM     38  C   UNL     1       1.215  -0.155  21.986  0.00  0.00    +0.005 C 
ATOM     39  C   UNL     1       2.382  -0.100  21.367  0.00  0.00    +0.127 C 
ATOM     40  N   UNL     1       3.409  -0.951  21.809  0.00  0.00    -0.247 N 
ATOM     41  C   UNL     1       3.740  -1.158  23.214  0.00  0.00    +0.119 C 
ATOM     42  C   UNL     1       4.198  -2.507  22.819  0.00  0.00    +0.115 C 
ATOM     43  C   UNL     1       4.468  -1.871  21.472  0.00  0.00    +0.233 C 
ATOM     44  O   UNL     1       5.227  -2.021  20.492  0.00  0.00    -0.274 OA
ATOM     45  H   UNL     1       2.668   0.139  24.963  0.00  0.00    +0.086 HD
BRANCH  39  46
ATOM     46  C   UNL     1       2.582   0.828  20.236  0.00  0.00    +0.352 C 
ATOM     47  O   UNL     1       2.043   1.938  20.205  0.00  0.00    -0.244 OA
BRANCH  46  48
ATOM     48  O   UNL     1       3.388   0.442  19.192  0.00  0.00    -0.476 OA
ATOM     49  H   UNL     1       4.320   0.455  19.291  0.00  0.00    +0.295 HD
ENDBRANCH  46  48
ENDBRANCH  39  46
ENDBRANCH  30  36
ENDBRANCH   1  32
BRANCH  15  50
ATOM     50  O   UNL     1      -5.536   1.164  31.001  0.00  0.00    -0.505 OA
ATOM     51  H   UNL     1      -4.644   1.433  30.902  0.00  0.00    +0.292 HD
ENDBRANCH  15  50
BRANCH   7  52
ATOM     52  O   UNL     1      -1.831  -1.034  28.599  0.00  0.00    -0.506 OA
ATOM     53  H   UNL     1      -2.288  -0.252  28.840  0.00  0.00    +0.292 HD
ENDBRANCH   7  52
TORSDOF 7
ENDMDL
