MODEL 1
REMARK VINA RESULT:    -5.521      0.000      0.000
REMARK INTER + INTRA:          -5.628
REMARK INTER:                  -6.166
REMARK INTRA:                   0.538
REMARK UNBOUND:                 0.538
REMARK  Name = =
REMARK  2 active torsions:
REMARK  status: ('A' for Active; 'I' for Inactive)
REMARK    1  A    between atoms: N_1  and  C_15
REMARK    2  A    between atoms: N_10  and  C_18
REMARK                            x       y       z     vdW  Elec       q    Type
REMARK                         _______ _______ _______ _____ _____    ______ ____
ROOT
ATOM      1  N   UNL     1      59.997 161.006  38.308  0.00  0.00    -0.195 N 
ATOM      2  C   UNL     1      58.953 160.423  37.533  0.00  0.00    +0.317 C 
ATOM      3  O   UNL     1      58.383 159.347  37.847  0.00  0.00    -0.252 OA
ATOM      4  N   UNL     1      58.522 161.085  36.332  0.00  0.00    -0.239 N 
ATOM      5  C   UNL     1      59.158 162.299  35.970  0.00  0.00    +0.239 C 
ATOM      6  O   UNL     1      59.033 162.724  34.796  0.00  0.00    -0.274 OA
ATOM      7  C   UNL     1      59.958 163.073  36.923  0.00  0.00    +0.171 C 
ATOM      8  C   UNL     1      60.635 162.232  37.935  0.00  0.00    +0.243 C 
ATOM      9  O   UNL     1      61.745 162.582  38.459  0.00  0.00    -0.274 OA
ATOM     10  H   UNL     1      57.803 160.706  35.776  0.00  0.00    +0.159 HD
ENDROOT
BRANCH   1  16
ATOM     11  N   UNL     1      59.977 160.935  40.715  0.00  0.00    -0.287 N 
ATOM     12  C   UNL     1      60.681 160.524  41.913  0.00  0.00    +0.124 C 
ATOM     13  C   UNL     1      61.403 159.227  41.601  0.00  0.00    +0.164 C 
ATOM     14  O   UNL     1      62.349 159.455  40.633  0.00  0.00    -0.348 OA
ATOM     15  C   UNL     1      61.949 160.279  39.598  0.00  0.00    +0.183 C 
ATOM     16  C   UNL     1      60.419 160.342  39.503  0.00  0.00    +0.190 C 
BRANCH  11  19
ATOM     17 BR   UNL     1      56.307 162.682  41.598  0.00  0.00    -0.047 Br
ATOM     18  C   UNL     1      57.784 161.503  41.365  0.00  0.00    +0.057 C 
ATOM     19  C   UNL     1      58.944 161.862  40.852  0.00  0.00    +0.070 C 
ENDBRANCH  11  19
ENDBRANCH   1  16
TORSDOF 2
ENDMDL
