MODEL 1
REMARK VINA RESULT:    -9.209      0.000      0.000
REMARK INTER + INTRA:         -14.052
REMARK INTER:                 -11.632
REMARK INTRA:                  -2.421
REMARK UNBOUND:                -2.421
REMARK  Name = =
REMARK  5 active torsions:
REMARK  status: ('A' for Active; 'I' for Inactive)
REMARK    1  A    between atoms: C_1  and  N_42
REMARK    2  A    between atoms: C_3  and  C_35
REMARK    3  A    between atoms: C_6  and  C_25
REMARK    4  A    between atoms: C_7  and  N_8
REMARK    5  A    between atoms: N_42  and  O_45
REMARK                            x       y       z     vdW  Elec       q    Type
REMARK                         _______ _______ _______ _____ _____    ______ ____
ROOT
ATOM      1  C   UNL     1       0.697  -4.010  28.911  0.00  0.00    +0.144 C 
ATOM      2  C   UNL     1       0.147  -5.039  29.849  0.00  0.00    +0.036 C 
ATOM      3  C   UNL     1      -0.003  -6.377  29.234  0.00  0.00    +0.066 C 
ATOM      4  C   UNL     1       1.338  -6.699  28.643  0.00  0.00    +0.174 C 
ATOM      5  O   UNL     1       1.913  -7.734  28.985  0.00  0.00    -0.291 OA
ATOM      6  C   UNL     1       1.870  -5.717  27.673  0.00  0.00    +0.050 C 
ATOM      7  C   UNL     1       1.551  -4.419  27.821  0.00  0.00    +0.084 C 
ENDROOT
BRANCH   7   8
ATOM      8  N   UNL     1       2.104  -3.520  26.877  0.00  0.00    -0.232 N 
ATOM      9  N   UNL     1       1.400  -2.993  25.836  0.00  0.00    -0.165 NA
ATOM     10  C   UNL     1       2.175  -2.217  25.088  0.00  0.00    +0.103 A 
ATOM     11  C   UNL     1       2.013  -1.420  23.881  0.00  0.00    +0.022 C 
ATOM     12  C   UNL     1       3.089  -0.729  23.369  0.00  0.00    +0.040 C 
ATOM     13  C   UNL     1       4.397  -0.779  24.016  0.00  0.00    +0.196 C 
ATOM     14  O   UNL     1       5.399  -0.182  23.606  0.00  0.00    -0.287 OA
ATOM     15  C   UNL     1       4.505  -1.605  25.239  0.00  0.00    +0.042 C 
ATOM     16  C   UNL     1       3.403  -2.251  25.675  0.00  0.00    +0.040 A 
ATOM     17  C   UNL     1       3.369  -3.072  26.807  0.00  0.00    +0.084 A 
ATOM     18  C   UNL     1       4.547  -3.219  27.517  0.00  0.00    +0.019 C 
ATOM     19  C   UNL     1       5.687  -2.546  27.065  0.00  0.00    +0.002 C 
ATOM     20  C   UNL     1       5.693  -1.743  25.943  0.00  0.00    +0.003 C 
ATOM     21  C   UNL     1       2.949   0.028  22.207  0.00  0.00    +0.003 C 
ATOM     22  C   UNL     1       1.734   0.094  21.557  0.00  0.00    +0.000 C 
ATOM     23  C   UNL     1       0.665  -0.610  22.092  0.00  0.00    +0.000 C 
ATOM     24  C   UNL     1       0.796  -1.365  23.246  0.00  0.00    +0.002 C 
ENDBRANCH   7   8
BRANCH   6  25
ATOM     25  C   UNL     1       2.630  -6.285  26.596  0.00  0.00    +0.004 C 
ATOM     26  C   UNL     1       2.009  -6.574  25.405  0.00  0.00    +0.002 C 
ATOM     27  C   UNL     1       2.707  -7.104  24.348  0.00  0.00    +0.019 C 
ATOM     28  C   UNL     1       4.054  -7.357  24.467  0.00  0.00    +0.081 C 
ATOM     29  C   UNL     1       4.702  -7.072  25.664  0.00  0.00    +0.018 C 
ATOM     30  C   UNL     1       3.967  -6.532  26.724  0.00  0.00    +0.002 C 
ATOM     31  C   UNL     1       6.053  -7.331  25.764  0.00  0.00    +0.003 C 
ATOM     32  C   UNL     1       6.684  -7.864  24.649  0.00  0.00    +0.021 C 
ATOM     33  C   UNL     1       6.034  -8.138  23.480  0.00  0.00    +0.099 C 
ATOM     34  N   UNL     1       4.727  -7.878  23.410  0.00  0.00    -0.244 NA
ENDBRANCH   6  25
BRANCH   3  35
ATOM     35  C   UNL     1      -0.373  -7.450  30.247  0.00  0.00    +0.037 C 
ATOM     36  C   UNL     1      -1.431  -8.342  29.712  0.00  0.00    +0.032 C 
ATOM     37  C   UNL     1      -2.517  -8.229  30.794  0.00  0.00    +0.115 C 
ATOM     38  O   UNL     1      -2.344  -6.889  31.209  0.00  0.00    -0.359 OA
ATOM     39  C   UNL     1      -0.967  -6.897  31.511  0.00  0.00    +0.116 C 
ATOM     40  C   UNL     1      -0.922  -8.057  32.518  0.00  0.00    +0.032 C 
ATOM     41  C   UNL     1      -1.997  -8.973  32.010  0.00  0.00    +0.032 C 
ENDBRANCH   3  35
BRANCH   1  42
ATOM     42  N   UNL     1      -0.434  -3.203  28.416  0.00  0.00    -0.161 N 
ATOM     43  C   UNL     1      -0.903  -2.038  29.026  0.00  0.00    +0.327 C 
ATOM     44  O   UNL     1      -1.861  -1.407  28.527  0.00  0.00    -0.263 OA
BRANCH  42  45
ATOM     45  O   UNL     1      -1.043  -3.657  27.279  0.00  0.00    -0.291 OA
ATOM     46  H   UNL     1      -0.405  -4.160  26.749  0.00  0.00    +0.242 HD
ENDBRANCH  42  45
ENDBRANCH   1  42
TORSDOF 5
ENDMDL
