MODEL 1
REMARK VINA RESULT:   -10.280      0.000      0.000
REMARK INTER + INTRA:         -14.807
REMARK INTER:                 -12.083
REMARK INTRA:                  -2.723
REMARK UNBOUND:                -2.723
REMARK  Name = =
REMARK  3 active torsions:
REMARK  status: ('A' for Active; 'I' for Inactive)
REMARK    1  A    between atoms: C_1  and  C_21
REMARK    2  A    between atoms: C_7  and  N_38
REMARK    3  A    between atoms: C_21  and  C_24
REMARK                            x       y       z     vdW  Elec       q    Type
REMARK                         _______ _______ _______ _____ _____    ______ ____
ROOT
ATOM      1  C   UNL     1       0.415  -7.193  28.050  0.00  0.00    -0.013 C 
ATOM      2  C   UNL     1      -0.928  -7.473  27.756  0.00  0.00    -0.004 C 
ATOM      3  C   UNL     1      -1.349  -8.528  26.990  0.00  0.00    +0.001 C 
ATOM      4  C   UNL     1      -0.436  -9.393  26.456  0.00  0.00    +0.014 C 
ATOM      5  C   UNL     1       0.929  -9.176  26.709  0.00  0.00    +0.046 C 
ATOM      6  C   UNL     1       1.333  -8.088  27.488  0.00  0.00    +0.010 C 
ATOM      7  C   UNL     1       2.733  -7.853  27.624  0.00  0.00    +0.120 C 
ATOM      8  C   UNL     1       3.595  -9.048  27.464  0.00  0.00    +0.013 C 
ATOM      9  C   UNL     1       3.180 -10.096  26.702  0.00  0.00    +0.046 C 
ATOM     10  N   UNL     1       1.828 -10.202  26.289  0.00  0.00    -0.313 N 
ATOM     11  C   UNL     1       4.069 -11.150  26.460  0.00  0.00    +0.014 C 
ATOM     12  C   UNL     1       5.333 -11.128  26.984  0.00  0.00    +0.001 C 
ATOM     13  C   UNL     1       5.780 -10.086  27.762  0.00  0.00    -0.000 C 
ATOM     14  C   UNL     1       4.899  -9.050  27.995  0.00  0.00    -0.001 C 
ATOM     15  H   UNL     1       1.521 -10.955  25.734  0.00  0.00    +0.152 HD
ENDROOT
BRANCH   1  22
ATOM     16  C   UNL     1       2.551  -2.934  28.580  0.00  0.00    +0.037 C 
ATOM     17  C   UNL     1       2.089  -4.218  28.899  0.00  0.00    +0.135 C 
ATOM     18  C   UNL     1       0.976  -4.753  28.293  0.00  0.00    +0.022 C 
ATOM     19  C   UNL     1       0.322  -3.954  27.334  0.00  0.00    -0.001 C 
ATOM     20  C   UNL     1       0.795  -2.700  27.041  0.00  0.00    -0.000 C 
ATOM     21  C   UNL     1       1.908  -2.155  27.646  0.00  0.00    +0.003 C 
ATOM     22  C   UNL     1       0.724  -6.042  28.877  0.00  0.00    +0.099 C 
ATOM     23  C   UNL     1       1.914  -6.263  29.815  0.00  0.00    +0.217 C 
ATOM     24  O   UNL     1       2.659  -5.078  29.811  0.00  0.00    -0.475 OA
BRANCH  22  25
ATOM     25  C   UNL     1      -0.407  -5.876  29.869  0.00  0.00    -0.010 C 
ATOM     26  C   UNL     1      -1.203  -4.726  29.802  0.00  0.00    +0.017 C 
ATOM     27  C   UNL     1      -2.263  -4.546  30.672  0.00  0.00    +0.099 A 
ATOM     28  C   UNL     1      -2.564  -5.491  31.626  0.00  0.00    +0.099 A 
ATOM     29  C   UNL     1      -1.759  -6.608  31.661  0.00  0.00    +0.020 C 
ATOM     30  C   UNL     1      -0.677  -6.823  30.794  0.00  0.00    -0.002 C 
ATOM     31  N   UNL     1      -3.594  -5.342  32.488  0.00  0.00    -0.242 NA
ATOM     32  C   UNL     1      -4.342  -4.246  32.413  0.00  0.00    +0.099 A 
ATOM     33  C   UNL     1      -5.417  -4.042  33.278  0.00  0.00    +0.021 C 
ATOM     34  C   UNL     1      -6.207  -2.913  33.219  0.00  0.00    +0.002 C 
ATOM     35  C   UNL     1      -5.934  -1.944  32.275  0.00  0.00    +0.002 C 
ATOM     36  C   UNL     1      -4.875  -2.138  31.415  0.00  0.00    +0.021 C 
ATOM     37  C   UNL     1      -4.072  -3.282  31.474  0.00  0.00    +0.099 A 
ATOM     38  N   UNL     1      -3.043  -3.447  30.624  0.00  0.00    -0.242 NA
ENDBRANCH  22  25
ENDBRANCH   1  22
BRANCH   7  39
ATOM     39  N   UNL     1       3.241  -6.963  26.568  0.00  0.00    -0.302 N 
ATOM     40  C   UNL     1       4.056  -5.810  26.618  0.00  0.00    +0.044 C 
ATOM     41  C   UNL     1       3.611  -4.899  25.640  0.00  0.00    -0.007 C 
ATOM     42  C   UNL     1       4.274  -3.709  25.544  0.00  0.00    -0.003 C 
ATOM     43  C   UNL     1       5.339  -3.356  26.343  0.00  0.00    -0.000 C 
ATOM     44  C   UNL     1       5.750  -4.261  27.282  0.00  0.00    +0.001 C 
ATOM     45  C   UNL     1       5.117  -5.492  27.429  0.00  0.00    +0.014 C 
ATOM     46  C   UNL     1       2.464  -5.565  24.917  0.00  0.00    +0.049 C 
ATOM     47  C   UNL     1       2.880  -7.039  25.131  0.00  0.00    +0.096 C 
ENDBRANCH   7  39
TORSDOF 3
ENDMDL
