REMARK  Name = =
REMARK  3 active torsions:
REMARK  status: ('A' for Active; 'I' for Inactive)
REMARK    1  A    between atoms: C_1  and  C_21
REMARK    2  A    between atoms: C_7  and  N_38
REMARK    3  A    between atoms: C_21  and  C_24
REMARK                            x       y       z     vdW  Elec       q    Type
REMARK                         _______ _______ _______ _____ _____    ______ ____
ROOT
ATOM      1  C   UNL     1     -15.030   2.573  25.755  0.00  0.00    -0.013 C 
ATOM      2  C   UNL     1     -15.641   1.388  25.318  0.00  0.00    -0.004 C 
ATOM      3  C   UNL     1     -16.673   1.335  24.418  0.00  0.00    +0.001 C 
ATOM      4  C   UNL     1     -17.173   2.488  23.882  0.00  0.00    +0.014 C 
ATOM      5  C   UNL     1     -16.610   3.714  24.272  0.00  0.00    +0.046 C 
ATOM      6  C   UNL     1     -15.562   3.742  25.198  0.00  0.00    +0.010 C 
ATOM      7  C   UNL     1     -15.100   5.017  25.639  0.00  0.00    +0.120 C 
ATOM      8  C   UNL     1     -15.319   6.134  24.690  0.00  0.00    +0.013 C 
ATOM      9  C   UNL     1     -16.344   6.084  23.797  0.00  0.00    +0.046 C 
ATOM     10  N   UNL     1     -17.036   4.871  23.553  0.00  0.00    -0.313 N 
ATOM     11  C   UNL     1     -16.608   7.209  23.007  0.00  0.00    +0.014 C 
ATOM     12  C   UNL     1     -15.845   8.339  23.128  0.00  0.00    +0.001 C 
ATOM     13  C   UNL     1     -14.799   8.418  24.017  0.00  0.00    -0.000 C 
ATOM     14  C   UNL     1     -14.546   7.306  24.794  0.00  0.00    -0.001 C 
ATOM     15  H   UNL     1     -17.782   4.828  22.912  0.00  0.00    +0.152 HD
ENDROOT
BRANCH   1  22
ATOM     16  C   UNL     1     -13.420   3.077  30.242  0.00  0.00    +0.037 C 
ATOM     17  C   UNL     1     -13.432   3.115  28.841  0.00  0.00    +0.135 C 
ATOM     18  C   UNL     1     -14.197   2.240  28.105  0.00  0.00    +0.022 C 
ATOM     19  C   UNL     1     -14.971   1.305  28.821  0.00  0.00    -0.001 C 
ATOM     20  C   UNL     1     -14.940   1.289  30.192  0.00  0.00    -0.000 C 
ATOM     21  C   UNL     1     -14.174   2.160  30.938  0.00  0.00    +0.003 C 
ATOM     22  C   UNL     1     -13.943   2.487  26.711  0.00  0.00    +0.099 C 
ATOM     23  C   UNL     1     -13.030   3.717  26.713  0.00  0.00    +0.217 C 
ATOM     24  O   UNL     1     -12.722   3.991  28.051  0.00  0.00    -0.475 OA
BRANCH  22  25
ATOM     25  C   UNL     1     -12.992   1.414  26.227  0.00  0.00    -0.010 C 
ATOM     26  C   UNL     1     -12.385   1.563  24.974  0.00  0.00    +0.017 C 
ATOM     27  C   UNL     1     -11.489   0.620  24.504  0.00  0.00    +0.099 A 
ATOM     28  C   UNL     1     -11.170  -0.489  25.254  0.00  0.00    +0.099 A 
ATOM     29  C   UNL     1     -11.787  -0.600  26.480  0.00  0.00    +0.020 C 
ATOM     30  C   UNL     1     -12.699   0.337  26.988  0.00  0.00    -0.002 C 
ATOM     31  N   UNL     1     -10.298  -1.426  24.820  0.00  0.00    -0.242 NA
ATOM     32  C   UNL     1      -9.729  -1.272  23.630  0.00  0.00    +0.099 A 
ATOM     33  C   UNL     1      -8.821  -2.209  23.134  0.00  0.00    +0.021 C 
ATOM     34  C   UNL     1      -8.218  -2.070  21.902  0.00  0.00    +0.002 C 
ATOM     35  C   UNL     1      -8.515  -0.971  21.122  0.00  0.00    +0.002 C 
ATOM     36  C   UNL     1      -9.409  -0.040  21.604  0.00  0.00    +0.021 C 
ATOM     37  C   UNL     1     -10.022  -0.179  22.854  0.00  0.00    +0.099 A 
ATOM     38  N   UNL     1     -10.892   0.744  23.301  0.00  0.00    -0.242 NA
ENDBRANCH  22  25
ENDBRANCH   1  22
BRANCH   7  39
ATOM     39  N   UNL     1     -15.830   5.478  26.831  0.00  0.00    -0.302 N 
ATOM     40  C   UNL     1     -16.920   4.927  27.540  0.00  0.00    +0.044 C 
ATOM     41  C   UNL     1     -17.748   5.976  27.985  0.00  0.00    -0.007 C 
ATOM     42  C   UNL     1     -18.870   5.636  28.685  0.00  0.00    -0.003 C 
ATOM     43  C   UNL     1     -19.231   4.339  28.975  0.00  0.00    -0.000 C 
ATOM     44  C   UNL     1     -18.407   3.341  28.533  0.00  0.00    +0.001 C 
ATOM     45  C   UNL     1     -17.248   3.622  27.814  0.00  0.00    +0.014 C 
ATOM     46  C   UNL     1     -17.090   7.263  27.544  0.00  0.00    +0.049 C 
ATOM     47  C   UNL     1     -15.623   6.776  27.519  0.00  0.00    +0.096 C 
ENDBRANCH   7  39
TORSDOF 3
