REMARK  Name = =
REMARK  3 active torsions:
REMARK  status: ('A' for Active; 'I' for Inactive)
REMARK    1  A    between atoms: C_1  and  N_10
REMARK    2  A    between atoms: C_4  and  C_7
REMARK    3  A    between atoms: N_10  and  N_16
REMARK                            x       y       z     vdW  Elec       q    Type
REMARK                         _______ _______ _______ _____ _____    ______ ____
ROOT
ATOM      1  C   UNL     1      50.560 156.842  29.524  0.00  0.00    +0.063 C 
ATOM      2  C   UNL     1      49.479 157.414  30.161  0.00  0.00    +0.016 C 
ATOM      3  C   UNL     1      49.505 158.693  30.659  0.00  0.00    +0.006 C 
ATOM      4  C   UNL     1      50.626 159.475  30.544  0.00  0.00    +0.053 C 
ATOM      5  C   UNL     1      51.721 158.927  29.910  0.00  0.00    +0.006 C 
ATOM      6  C   UNL     1      51.682 157.629  29.410  0.00  0.00    +0.016 C 
ENDROOT
BRANCH   4   7
ATOM      7  C   UNL     1      50.694 160.836  31.059  0.00  0.00    +0.243 C 
ATOM      8  O   UNL     1      49.691 161.395  31.562  0.00  0.00    -0.270 OA
ATOM      9  N   UNL     1      51.923 161.529  30.983  0.00  0.00    -0.325 N 
ATOM     10  H   UNL     1      52.711 161.091  30.588  0.00  0.00    +0.145 HD
ATOM     11  H   UNL     1      51.991 162.450  31.325  0.00  0.00    +0.145 HD
ENDBRANCH   4   7
BRANCH   1  12
ATOM     12  N   UNL     1      50.569 155.527  28.997  0.00  0.00    -0.249 N 
ATOM     13  H   UNL     1      49.784 154.957  29.164  0.00  0.00    +0.172 HD
BRANCH  12  19
ATOM     14  N   UNL     1      51.960 155.414  26.976  0.00  0.00    -0.212 NA
ATOM     15  C   UNL     1      52.239 154.300  26.123  0.00  0.00    +0.094 C 
ATOM     16  C   UNL     1      53.252 153.351  26.670  0.00  0.00    +0.046 C 
ATOM     17  C   UNL     1      53.175 153.158  28.128  0.00  0.00    -0.006 C 
ATOM     18  C   UNL     1      52.391 153.953  28.836  0.00  0.00    +0.094 C 
ATOM     19  N   UNL     1      51.610 154.996  28.264  0.00  0.00    -0.183 N 
ATOM     20  H   UNL     1      52.790 156.004  27.033  0.00  0.00    +0.147 HD
ENDBRANCH  12  19
ENDBRANCH   1  12
TORSDOF 3
