REMARK  Name = =
REMARK  5 active torsions:
REMARK  status: ('A' for Active; 'I' for Inactive)
REMARK    1  A    between atoms: C_1  and  N_17
REMARK    2  A    between atoms: C_4  and  C_7
REMARK    3  A    between atoms: N_9  and  O_10
REMARK    4  A    between atoms: O_10  and  C_11
REMARK    5  A    between atoms: N_17  and  N_23
REMARK                            x       y       z     vdW  Elec       q    Type
REMARK                         _______ _______ _______ _____ _____    ______ ____
ROOT
ATOM      1  C   UNL     1      51.612 158.144  29.456  0.00  0.00    +0.063 C 
ATOM      2  C   UNL     1      50.848 157.080  29.837  0.00  0.00    +0.016 C 
ATOM      3  C   UNL     1      51.017 155.794  29.353  0.00  0.00    +0.006 C 
ATOM      4  C   UNL     1      52.015 155.565  28.434  0.00  0.00    +0.056 C 
ATOM      5  C   UNL     1      52.801 156.620  28.032  0.00  0.00    +0.006 C 
ATOM      6  C   UNL     1      52.622 157.895  28.519  0.00  0.00    +0.016 C 
ENDROOT
BRANCH   4   7
ATOM      7  C   UNL     1      52.187 154.214  27.925  0.00  0.00    +0.277 C 
ATOM      8  O   UNL     1      52.764 153.299  28.557  0.00  0.00    -0.267 OA
ATOM      9  N   UNL     1      51.670 153.919  26.638  0.00  0.00    -0.144 N 
ATOM     10  H   UNL     1      51.216 154.642  26.149  0.00  0.00    +0.196 HD
BRANCH   9  11
ATOM     11  O   UNL     1      51.761 152.688  26.027  0.00  0.00    -0.382 OA
BRANCH  11  12
ATOM     12  C   UNL     1      53.009 152.308  25.585  0.00  0.00    +0.189 C 
ATOM     13  C   UNL     1      53.433 151.009  25.740  0.00  0.00    +0.139 C 
ATOM     14  N   UNL     1      54.657 150.628  25.310  0.00  0.00    -0.239 NA
ATOM     15  C   UNL     1      55.523 151.485  24.712  0.00  0.00    +0.099 C 
ATOM     16  C   UNL     1      55.121 152.784  24.548  0.00  0.00    +0.024 C 
ATOM     17  C   UNL     1      53.868 153.201  24.981  0.00  0.00    +0.043 C 
ENDBRANCH  11  12
ENDBRANCH   9  11
ENDBRANCH   4   7
BRANCH   1  18
ATOM     18  N   UNL     1      51.409 159.451  29.975  0.00  0.00    -0.249 N 
ATOM     19  H   UNL     1      51.956 160.203  29.652  0.00  0.00    +0.172 HD
BRANCH  18  25
ATOM     20  N   UNL     1      49.063 159.545  30.720  0.00  0.00    -0.212 NA
ATOM     21  C   UNL     1      48.475 160.823  31.118  0.00  0.00    +0.094 C 
ATOM     22  C   UNL     1      48.565 160.871  32.629  0.00  0.00    +0.046 C 
ATOM     23  C   UNL     1      49.955 160.586  33.043  0.00  0.00    -0.006 C 
ATOM     24  C   UNL     1      50.854 160.014  32.256  0.00  0.00    +0.094 C 
ATOM     25  N   UNL     1      50.442 159.658  30.933  0.00  0.00    -0.183 N 
ATOM     26  H   UNL     1      48.680 158.789  31.287  0.00  0.00    +0.147 HD
ENDBRANCH  18  25
ENDBRANCH   1  18
TORSDOF 5
