MODEL 1
REMARK VINA RESULT:   -12.522      0.000      0.000
REMARK INTER + INTRA:         -17.816
REMARK INTER:                 -17.646
REMARK INTRA:                  -0.170
REMARK UNBOUND:                -0.170
REMARK  Name = =
REMARK  7 active torsions:
REMARK  status: ('A' for Active; 'I' for Inactive)
REMARK    1  A    between atoms: C_1  and  C_15
REMARK    2  A    between atoms: C_10  and  C_23
REMARK    3  A    between atoms: C_15  and  C_20
REMARK    4  A    between atoms: C_23  and  C_25
REMARK    5  A    between atoms: C_26  and  O_31
REMARK    6  A    between atoms: O_31  and  O_32
REMARK    7  A    between atoms: O_32  and  C_33
REMARK                            x       y       z     vdW  Elec       q    Type
REMARK                         _______ _______ _______ _____ _____    ______ ____
ROOT
ATOM      1  C   UNL     1     -13.166 -44.269  30.125  0.00  0.00    +0.039 C 
ATOM      2  C   UNL     1     -14.332 -43.688  29.690  0.00  0.00    +0.020 C 
ATOM      3  C   UNL     1     -14.576 -43.468  28.325  0.00  0.00    +0.081 C 
ATOM      4  N   UNL     1     -15.728 -42.895  27.923  0.00  0.00    -0.244 NA
ATOM      5  C   UNL     1     -15.958 -42.683  26.617  0.00  0.00    +0.102 C 
ATOM      6  C   UNL     1     -15.048 -43.032  25.636  0.00  0.00    +0.099 C 
ATOM      7  N   UNL     1     -15.326 -42.802  24.357  0.00  0.00    -0.242 NA
ATOM      8  C   UNL     1     -16.505 -42.226  24.031  0.00  0.00    +0.099 C 
ATOM      9  C   UNL     1     -17.439 -41.863  24.978  0.00  0.00    +0.025 C 
ATOM     10  C   UNL     1     -17.186 -42.086  26.310  0.00  0.00    +0.060 C 
ATOM     11  C   UNL     1     -13.844 -43.626  26.011  0.00  0.00    +0.022 C 
ATOM     12  C   UNL     1     -13.654 -43.823  27.367  0.00  0.00    +0.019 C 
ATOM     13  C   UNL     1     -12.474 -44.411  27.806  0.00  0.00    +0.001 C 
ATOM     14  C   UNL     1     -12.240 -44.626  29.147  0.00  0.00    +0.001 C 
ENDROOT
BRANCH   1  15
ATOM     15  C   UNL     1     -12.902 -44.523  31.577  0.00  0.00    +0.278 C 
ATOM     16  O   UNL     1     -11.644 -45.055  31.803  0.00  0.00    -0.322 OA
ATOM     17  C   UNL     1     -10.737 -44.044  31.967  0.00  0.00    +0.177 C 
ATOM     18  C   UNL     1     -11.589 -42.808  31.749  0.00  0.00    +0.177 C 
ATOM     19  O   UNL     1     -12.818 -43.279  32.258  0.00  0.00    -0.322 OA
BRANCH  15  20
ATOM     20  C   UNL     1     -13.934 -45.368  32.211  0.00  0.00    +0.275 C 
ATOM     21  O   UNL     1     -14.209 -46.502  31.773  0.00  0.00    -0.270 OA
ATOM     22  N   UNL     1     -14.650 -44.908  33.348  0.00  0.00    -0.325 N 
ATOM     23  H   UNL     1     -14.459 -44.018  33.723  0.00  0.00    +0.145 HD
ATOM     24  H   UNL     1     -15.335 -45.480  33.763  0.00  0.00    +0.145 HD
ENDBRANCH  15  20
ENDBRANCH   1  15
BRANCH  10  25
ATOM     25  C   UNL     1     -18.104 -41.725  27.364  0.00  0.00    +0.200 C 
ATOM     26  O   UNL     1     -17.734 -40.939  28.284  0.00  0.00    -0.286 OA
BRANCH  25  27
ATOM     27  C   UNL     1     -19.450 -42.266  27.367  0.00  0.00    +0.078 C 
ATOM     28  C   UNL     1     -20.412 -41.606  26.606  0.00  0.00    +0.199 C 
ATOM     29  C   UNL     1     -21.716 -42.050  26.579  0.00  0.00    +0.042 C 
ATOM     30  C   UNL     1     -22.117 -43.164  27.301  0.00  0.00    +0.003 C 
ATOM     31  C   UNL     1     -21.159 -43.813  28.051  0.00  0.00    +0.000 C 
ATOM     32  C   UNL     1     -19.837 -43.380  28.093  0.00  0.00    +0.006 C 
BRANCH  28  33
ATOM     33  O   UNL     1     -20.016 -40.493  25.883  0.00  0.00    -0.286 OA
BRANCH  33  34
ATOM     34  O   UNL     1     -20.905 -39.854  25.148  0.00  0.00    -0.287 OA
BRANCH  34  35
ATOM     35  C   UNL     1     -20.952 -40.245  23.811  0.00  0.00    +0.195 C 
ATOM     36  C   UNL     1     -21.841 -39.413  22.990  0.00  0.00    +0.040 C 
ATOM     37  C   UNL     1     -21.459 -38.733  21.912  0.00  0.00    +0.009 C 
ATOM     38  C   UNL     1     -20.073 -38.792  21.483  0.00  0.00    +0.148 C 
ATOM     39  N   UNL     1     -19.950 -38.053  20.420  0.00  0.00    -0.262 NA
ATOM     40  C   UNL     1     -21.206 -37.473  20.084  0.00  0.00    +0.094 C 
ATOM     41  C   UNL     1     -22.136 -37.862  20.960  0.00  0.00    +0.018 C 
ATOM     42  C   UNL     1     -19.165 -39.607  22.269  0.00  0.00    +0.005 C 
ATOM     43  C   UNL     1     -19.582 -40.250  23.310  0.00  0.00    +0.040 C 
ENDBRANCH  34  35
ENDBRANCH  33  34
ENDBRANCH  28  33
ENDBRANCH  25  27
ENDBRANCH  10  25
TORSDOF 7
ENDMDL
