REMARK  Name = =
REMARK  7 active torsions:
REMARK  status: ('A' for Active; 'I' for Inactive)
REMARK    1  A    between atoms: C_1  and  O_42
REMARK    2  A    between atoms: C_2  and  C_7
REMARK    3  A    between atoms: C_4  and  N_21
REMARK    4  A    between atoms: C_4  and  C_30
REMARK    5  A    between atoms: C_35  and  N_36
REMARK    6  A    between atoms: O_42  and  P_44
REMARK    7  A    between atoms: P_44  and  O_46
REMARK                            x       y       z     vdW  Elec       q    Type
REMARK                         _______ _______ _______ _____ _____    ______ ____
ROOT
ATOM      1  C   UNL     1      -6.118  -3.720  21.027  0.00  0.00    +0.129 C 
ATOM      2  C   UNL     1      -5.028  -3.692  20.041  0.00  0.00    +0.052 C 
ATOM      3  C   UNL     1      -5.294  -2.747  18.881  0.00  0.00    +0.025 C 
ATOM      4  C   UNL     1      -5.730  -1.338  19.274  0.00  0.00    +0.066 C 
ATOM      5  C   UNL     1      -6.909  -1.633  20.183  0.00  0.00    +0.021 C 
ATOM      6  C   UNL     1      -6.388  -2.257  21.474  0.00  0.00    +0.032 C 
ENDROOT
BRANCH   2   7
ATOM      7  C   UNL     1      -4.845  -5.043  19.426  0.00  0.00    -0.017 C 
ATOM      8  C   UNL     1      -5.876  -5.650  18.753  0.00  0.00    -0.004 C 
ATOM      9  C   UNL     1      -5.668  -6.880  18.116  0.00  0.00    +0.003 C 
ATOM     10  C   UNL     1      -4.437  -7.470  18.172  0.00  0.00    +0.037 C 
ATOM     11  C   UNL     1      -3.390  -6.841  18.862  0.00  0.00    +0.139 C 
ATOM     12  C   UNL     1      -3.566  -5.644  19.487  0.00  0.00    +0.030 C 
ATOM     13  C   UNL     1      -2.495  -4.945  20.227  0.00  0.00    +0.002 C 
ATOM     14  C   UNL     1      -1.224  -5.737  20.219  0.00  0.00    +0.022 C 
ATOM     15  C   UNL     1      -1.093  -6.915  19.586  0.00  0.00    +0.210 C 
ATOM     16  O   UNL     1      -2.152  -7.462  18.918  0.00  0.00    -0.470 OA
ATOM     17  C   UNL     1       0.135  -7.580  19.618  0.00  0.00    +0.021 C 
ATOM     18  C   UNL     1       1.214  -7.069  20.277  0.00  0.00    -0.001 C 
ATOM     19  C   UNL     1       1.059  -5.851  20.926  0.00  0.00    -0.000 C 
ATOM     20  C   UNL     1      -0.137  -5.174  20.910  0.00  0.00    -0.000 C 
ENDBRANCH   2   7
BRANCH   4  21
ATOM     21  N   UNL     1      -4.631  -0.658  19.963  0.00  0.00    -0.272 N 
ATOM     22  C   UNL     1      -3.397  -1.158  20.159  0.00  0.00    +0.168 C 
ATOM     23  N   UNL     1      -2.612  -0.271  20.834  0.00  0.00    -0.226 NA
ATOM     24  C   UNL     1      -3.336   0.804  21.074  0.00  0.00    +0.096 C 
ATOM     25  C   UNL     1      -4.599   0.558  20.526  0.00  0.00    +0.070 C 
ATOM     26  C   UNL     1      -5.496   1.575  20.665  0.00  0.00    +0.016 C 
ATOM     27  C   UNL     1      -5.226   2.784  21.298  0.00  0.00    +0.001 C 
ATOM     28  C   UNL     1      -3.982   2.997  21.826  0.00  0.00    +0.002 C 
ATOM     29  C   UNL     1      -3.042   2.006  21.713  0.00  0.00    +0.020 C 
ENDBRANCH   4  21
BRANCH   4  30
ATOM     30  C   UNL     1      -6.203  -0.544  18.113  0.00  0.00    +0.045 C 
ATOM     31  C   UNL     1      -5.768  -1.152  16.777  0.00  0.00    +0.068 C 
ATOM     32  C   UNL     1      -7.011  -1.972  16.433  0.00  0.00    +0.153 C 
ATOM     33  O   UNL     1      -7.008  -3.075  15.897  0.00  0.00    -0.296 OA
ATOM     34  C   UNL     1      -8.078  -1.095  16.908  0.00  0.00    +0.086 C 
ATOM     35  C   UNL     1      -7.603  -0.270  17.870  0.00  0.00    +0.110 C 
BRANCH  35  36
ATOM     36  N   UNL     1      -8.428   0.766  18.460  0.00  0.00    -0.165 N 
ATOM     37  N   UNL     1      -7.969   1.862  19.040  0.00  0.00    -0.156 NA
ATOM     38  C   UNL     1      -8.967   2.640  19.498  0.00  0.00    +0.187 C 
ATOM     39  N   UNL     1     -10.107   1.996  19.187  0.00  0.00    -0.249 N 
ATOM     40  C   UNL     1      -9.743   0.850  18.551  0.00  0.00    +0.328 C 
ATOM     41  O   UNL     1     -10.566   0.007  18.121  0.00  0.00    -0.250 OA
ATOM     42  H   UNL     1     -11.024   2.296  19.382  0.00  0.00    +0.158 HD
ENDBRANCH  35  36
ENDBRANCH   4  30
BRANCH   1  43
ATOM     43  O   UNL     1      -7.261  -4.391  20.865  0.00  0.00    -0.289 OA
BRANCH  43  45
ATOM     44  S   UNL     1      -8.788  -5.055  23.121  0.00  0.00    +0.039 S 
ATOM     45  P   UNL     1      -7.562  -5.588  22.034  0.00  0.00    +0.400 P 
ATOM     46  O   UNL     1      -6.281  -5.925  22.758  0.00  0.00    -0.245 OA
BRANCH  45  47
ATOM     47  O   UNL     1      -8.121  -7.014  21.300  0.00  0.00    -0.316 OA
ATOM     48  H   UNL     1      -7.452  -7.342  20.679  0.00  0.00    +0.221 HD
ENDBRANCH  45  47
ENDBRANCH  43  45
ENDBRANCH   1  43
TORSDOF 7
