REMARK  Name = =
REMARK  8 active torsions:
REMARK  status: ('A' for Active; 'I' for Inactive)
REMARK    1  A    between atoms: C_1  and  C_2
REMARK    2  A    between atoms: C_1  and  C_25
REMARK    3  A    between atoms: C_1  and  C_31
REMARK    4  A    between atoms: C_2  and  C_3
REMARK    5  A    between atoms: C_2  and  C_37
REMARK    6  A    between atoms: C_9  and  N_13
REMARK    7  A    between atoms: N_21  and  S_27
REMARK    8  A    between atoms: S_27  and  N_30
REMARK                            x       y       z     vdW  Elec       q    Type
REMARK                         _______ _______ _______ _____ _____    ______ ____
ROOT
ATOM      1  C   UNL     1      -9.138  -6.325  19.027  0.00  0.00    +0.078 C 
ENDROOT
BRANCH   1   2
ATOM      2  C   UNL     1     -10.236  -7.266  19.256  0.00  0.00    +0.149 C 
ATOM      3  N   UNL     1     -10.028  -8.589  18.956  0.00  0.00    -0.146 NA
ATOM      4  N   UNL     1     -10.958  -9.512  19.119  0.00  0.00    -0.115 NA
ATOM      5  C   UNL     1     -12.172  -9.197  19.593  0.00  0.00    +0.108 C 
ATOM      6  C   UNL     1     -12.403  -7.870  19.901  0.00  0.00    +0.103 C 
ATOM      7  N   UNL     1     -11.444  -6.936  19.730  0.00  0.00    -0.194 NA
ATOM      8  C   UNL     1     -13.640  -7.513  20.388  0.00  0.00    +0.079 C 
ATOM      9  C   UNL     1     -14.655  -8.458  20.575  0.00  0.00    +0.017 C 
ATOM     10  C   UNL     1     -14.405  -9.795  20.260  0.00  0.00    +0.003 C 
ATOM     11  C   UNL     1     -13.170 -10.153  19.772  0.00  0.00    +0.020 C 
BRANCH   8  12
ATOM     12  N   UNL     1     -13.833  -6.136  20.685  0.00  0.00    -0.187 N 
ATOM     13  C   UNL     1     -14.309  -5.313  19.737  0.00  0.00    +0.318 C 
ATOM     14  O   UNL     1     -14.593  -5.720  18.580  0.00  0.00    -0.251 OA
ATOM     15  N   UNL     1     -14.505  -3.997  19.991  0.00  0.00    -0.266 N 
ATOM     16  C   UNL     1     -14.227  -3.478  21.200  0.00  0.00    +0.070 C 
ATOM     17  C   UNL     1     -13.733  -4.294  22.206  0.00  0.00    +0.075 C 
ATOM     18  C   UNL     1     -13.553  -5.635  21.886  0.00  0.00    +0.261 C 
ATOM     19  O   UNL     1     -13.104  -6.418  22.772  0.00  0.00    -0.269 OA
ATOM     20  H   UNL     1     -14.856  -3.412  19.281  0.00  0.00    +0.156 HD
ENDBRANCH   8  12
ENDBRANCH   1   2
BRANCH   1  21
ATOM     21  C   UNL     1      -9.005  -5.905  17.660  0.00  0.00    +0.076 C 
ATOM     22  S   UNL     1     -10.161  -4.833  17.083  0.00  0.00    -0.082 S 
ENDBRANCH   1  21
BRANCH   1  23
ATOM     23  C   UNL     1      -8.449  -5.805  20.018  0.00  0.00    +0.087 C 
BRANCH  23  28
ATOM     24  N   UNL     1      -8.737  -7.256  22.216  0.00  0.00    -0.080 N 
ATOM     25  C   UNL     1      -8.329  -8.574  22.212  0.00  0.00    +0.327 C 
ATOM     26  O   UNL     1      -8.452  -9.261  23.354  0.00  0.00    -0.251 OA
ATOM     27  N   UNL     1      -7.787  -9.405  21.226  0.00  0.00    -0.312 N 
ATOM     28  C   UNL     1      -8.826  -6.166  21.376  0.00  0.00    +0.252 C 
ATOM     29  O   UNL     1      -9.435  -5.102  21.944  0.00  0.00    -0.273 OA
ATOM     30  H   UNL     1      -7.630  -9.055  20.319  0.00  0.00    +0.147 HD
ATOM     31  H   UNL     1      -7.563 -10.340  21.439  0.00  0.00    +0.147 HD
BRANCH  24  32
ATOM     32  S   UNL     1      -9.416  -6.853  23.872  0.00  0.00    +0.119 S 
ATOM     33  O   UNL     1      -9.958  -5.480  23.821  0.00  0.00    -0.138 OA
ATOM     34  O   UNL     1     -10.442  -7.920  24.078  0.00  0.00    -0.138 OA
BRANCH  32  35
ATOM     35  N   UNL     1      -8.175  -7.040  25.027  0.00  0.00    -0.190 NA
ATOM     36  H   UNL     1      -7.842  -8.004  25.016  0.00  0.00    +0.146 HD
ATOM     37  H   UNL     1      -8.537  -6.816  25.954  0.00  0.00    +0.146 HD
ENDBRANCH  32  35
ENDBRANCH  24  32
ENDBRANCH  23  28
BRANCH  23  38
ATOM     38  C   UNL     1      -7.228  -4.980  19.831  0.00  0.00    +0.009 C 
ATOM     39  C   UNL     1      -6.107  -5.521  19.010  0.00  0.00    +0.000 C 
ATOM     40  C   UNL     1      -4.826  -4.914  19.690  0.00  0.00    +0.000 C 
ATOM     41  C   UNL     1      -5.044  -3.465  19.935  0.00  0.00    +0.000 C 
ATOM     42  C   UNL     1      -6.197  -2.831  19.213  0.00  0.00    +0.000 C 
ATOM     43  C   UNL     1      -7.476  -3.565  19.449  0.00  0.00    +0.000 C 
ENDBRANCH  23  38
ENDBRANCH   1  23
TORSDOF 8
