REMARK  Name = =
REMARK  0 active torsions:
REMARK  status: ('A' for Active; 'I' for Inactive)
REMARK                            x       y       z     vdW  Elec       q    Type
REMARK                         _______ _______ _______ _____ _____    ______ ____
ROOT
ATOM      1  N   UNL     1      51.714 155.135  28.282  0.00  0.00    -0.233 N 
ATOM      2  C   UNL     1      52.664 155.797  27.470  0.00  0.00    +0.304 C 
ATOM      3  O   UNL     1      53.096 156.926  27.851  0.00  0.00    -0.253 OA
ATOM      4  N   UNL     1      53.132 155.230  26.265  0.00  0.00    -0.313 N 
ATOM      5  C   UNL     1      51.269 155.733  29.482  0.00  0.00    +0.307 C 
ATOM      6  O   UNL     1      51.732 156.848  29.803  0.00  0.00    -0.265 OA
ATOM      7  H   UNL     1      51.362 154.256  28.011  0.00  0.00    +0.160 HD
ATOM      8  H   UNL     1      53.794 155.712  25.718  0.00  0.00    +0.146 HD
ATOM      9  H   UNL     1      52.797 154.352  25.971  0.00  0.00    +0.146 HD
ENDROOT
TORSDOF 0
