REMARK  Name = =
REMARK  0 active torsions:
REMARK  status: ('A' for Active; 'I' for Inactive)
REMARK                            x       y       z     vdW  Elec       q    Type
REMARK                         _______ _______ _______ _____ _____    ______ ____
ROOT
ATOM      1  C   UNL     1      52.323 155.429  28.183  0.00  0.00    +0.076 C 
ATOM      2  S   UNL     1      52.907 155.842  26.491  0.00  0.00    -0.121 S 
ATOM      3  C   UNL     1      52.491 154.213  25.750  0.00  0.00    +0.128 C 
ATOM      4  N   UNL     1      51.618 153.682  26.708  0.00  0.00    -0.288 NA
ATOM      5  C   UNL     1      51.962 153.984  28.018  0.00  0.00    +0.081 C 
ATOM      6  H   UNL     1      51.609 152.667  26.605  0.00  0.00    +0.124 HD
ENDROOT
TORSDOF 0
