REMARK  Name = =
REMARK  4 active torsions:
REMARK  status: ('A' for Active; 'I' for Inactive)
REMARK    1  A    between atoms: C_1  and  N_6
REMARK    2  A    between atoms: N_6  and  C_7
REMARK    3  A    between atoms: C_7  and  C_8
REMARK    4  A    between atoms: C_8  and  O_9
REMARK                            x       y       z     vdW  Elec       q    Type
REMARK                         _______ _______ _______ _____ _____    ______ ____
ROOT
ATOM      1  C   UNL     1      52.054 155.421  28.000  0.00  0.00    +0.137 C 
ATOM      2  S   UNL     1      52.917 155.536  26.377  0.00  0.00    -0.105 S 
ATOM      3  C   UNL     1      53.232 153.736  26.165  0.00  0.00    +0.129 C 
ATOM      4  N   UNL     1      52.357 153.200  27.191  0.00  0.00    -0.286 NA
ATOM      5  C   UNL     1      52.512 154.002  28.365  0.00  0.00    +0.098 C 
ATOM      6  H   UNL     1      52.613 152.234  27.395  0.00  0.00    +0.124 HD
ENDROOT
BRANCH   1   7
ATOM      7  N   UNL     1      52.591 156.359  28.941  0.00  0.00    -0.204 NA
BRANCH   7   8
ATOM      8  C   UNL     1      52.136 157.683  28.657  0.00  0.00    +0.121 C 
BRANCH   8   9
ATOM      9  C   UNL     1      51.611 158.384  29.916  0.00  0.00    +0.156 C 
BRANCH   9  10
ATOM     10  O   UNL     1      51.091 159.634  29.597  0.00  0.00    -0.380 OA
ATOM     11  H   UNL     1      50.764 160.063  30.403  0.00  0.00    +0.211 HD
ENDBRANCH   9  10
ENDBRANCH   8   9
ENDBRANCH   7   8
ENDBRANCH   1   7
TORSDOF 4
