REMARK  Name = =
REMARK  1 active torsions:
REMARK  status: ('A' for Active; 'I' for Inactive)
REMARK    1  A    between atoms: C_8  and  N_12
REMARK                            x       y       z     vdW  Elec       q    Type
REMARK                         _______ _______ _______ _____ _____    ______ ____
ROOT
ATOM      1  C   UNL     1      48.597 161.898  32.505  0.00  0.00    +0.052 C 
ATOM      2  C   UNL     1      49.228 161.106  31.559  0.00  0.00    +0.052 C 
ATOM      3  S   UNL     1      49.136 161.278  29.802  0.00  0.00    -0.111 S 
ATOM      4  C   UNL     1      47.518 161.779  29.248  0.00  0.00    +0.064 C 
ATOM      5  C   UNL     1      46.712 162.566  30.199  0.00  0.00    +0.033 C 
ATOM      6  C   UNL     1      47.436 163.596  30.992  0.00  0.00    +0.088 C 
ATOM      7  N   UNL     1      47.732 163.032  32.295  0.00  0.00    -0.332 N 
ATOM      8  C   UNL     1      50.027 160.053  31.982  0.00  0.00    +0.069 C 
ATOM      9  C   UNL     1      50.162 159.839  33.334  0.00  0.00    +0.016 C 
ATOM     10  C   UNL     1      49.532 160.632  34.274  0.00  0.00    +0.003 C 
ATOM     11  C   UNL     1      48.740 161.675  33.844  0.00  0.00    +0.015 C 
ATOM     12  H   UNL     1      47.317 163.449  33.084  0.00  0.00    +0.147 HD
ENDROOT
BRANCH   8  13
ATOM     13  N   UNL     1      50.645 159.282  30.985  0.00  0.00    -0.185 N 
ATOM     14  C   UNL     1      51.866 159.653  30.372  0.00  0.00    +0.311 C 
ATOM     15  O   UNL     1      52.407 160.715  30.747  0.00  0.00    -0.252 OA
ATOM     16  N   UNL     1      52.490 158.881  29.368  0.00  0.00    -0.313 N 
ATOM     17  C   UNL     1      50.042 158.074  30.553  0.00  0.00    +0.314 C 
ATOM     18  O   UNL     1      50.529 157.339  29.673  0.00  0.00    -0.264 OA
ATOM     19  H   UNL     1      53.340 159.182  28.972  0.00  0.00    +0.147 HD
ATOM     20  H   UNL     1      52.075 158.042  29.064  0.00  0.00    +0.147 HD
ENDBRANCH   8  13
TORSDOF 1
