REMARK  Name = =
REMARK  5 active torsions:
REMARK  status: ('A' for Active; 'I' for Inactive)
REMARK    1  A    between atoms: C_1  and  S_6
REMARK    2  A    between atoms: C_1  and  N_9
REMARK    3  A    between atoms: N_9  and  C_10
REMARK    4  A    between atoms: C_10  and  C_11
REMARK    5  A    between atoms: C_11  and  O_12
REMARK                            x       y       z     vdW  Elec       q    Type
REMARK                         _______ _______ _______ _____ _____    ______ ____
ROOT
ATOM      1  C   UNL     1      52.510 155.425  28.081  0.00  0.00    +0.221 C 
ATOM      2  S   UNL     1      52.799 155.915  26.332  0.00  0.00    -0.085 S 
ATOM      3  C   UNL     1      53.570 154.325  25.813  0.00  0.00    +0.131 C 
ATOM      4  N   UNL     1      52.965 153.463  26.811  0.00  0.00    -0.285 NA
ATOM      5  C   UNL     1      53.188 154.078  28.100  0.00  0.00    +0.119 C 
ATOM      6  H   UNL     1      53.399 152.540  26.785  0.00  0.00    +0.124 HD
ENDROOT
BRANCH   1   7
ATOM      7  S   UNL     1      50.816 155.380  28.480  0.00  0.00    -0.010 S 
ATOM      8  O   UNL     1      50.184 154.045  28.347  0.00  0.00    -0.174 OA
ATOM      9  O   UNL     1      50.658 155.801  29.935  0.00  0.00    -0.174 OA
ATOM     10  H   UNL     1      50.201 156.210  27.596  0.00  0.00    +0.212 HD
ENDBRANCH   1   7
BRANCH   1  11
ATOM     11  N   UNL     1      53.206 156.400  28.899  0.00  0.00    -0.187 NA
BRANCH  11  12
ATOM     12  C   UNL     1      52.527 157.678  28.688  0.00  0.00    +0.123 C 
BRANCH  12  13
ATOM     13  C   UNL     1      53.153 158.763  29.520  0.00  0.00    +0.156 C 
BRANCH  13  14
ATOM     14  O   UNL     1      54.517 158.806  29.333  0.00  0.00    -0.380 OA
ATOM     15  H   UNL     1      54.896 159.512  29.879  0.00  0.00    +0.211 HD
ENDBRANCH  13  14
ENDBRANCH  12  13
ENDBRANCH  11  12
ENDBRANCH   1  11
TORSDOF 5
