REMARK  Name = =
REMARK  6 active torsions:
REMARK  status: ('A' for Active; 'I' for Inactive)
REMARK    1  A    between atoms: N_1  and  C_2
REMARK    2  A    between atoms: N_1  and  C_15
REMARK    3  A    between atoms: C_2  and  S_7
REMARK    4  A    between atoms: O_11  and  O_14
REMARK    5  A    between atoms: C_15  and  C_16
REMARK    6  A    between atoms: C_16  and  O_17
REMARK                            x       y       z     vdW  Elec       q    Type
REMARK                         _______ _______ _______ _____ _____    ______ ____
ROOT
ATOM      1  C   UNL     1      52.316 154.945  26.781  0.00  0.00    +0.221 C 
ATOM      2  S   UNL     1      53.394 153.796  27.730  0.00  0.00    -0.085 S 
ATOM      3  C   UNL     1      52.543 152.249  27.208  0.00  0.00    +0.131 C 
ATOM      4  N   UNL     1      51.746 152.741  26.122  0.00  0.00    -0.285 NA
ATOM      5  C   UNL     1      51.160 154.024  26.535  0.00  0.00    +0.119 C 
ATOM      6  H   UNL     1      52.331 152.877  25.297  0.00  0.00    +0.124 HD
ENDROOT
BRANCH   1   7
ATOM      7  S   UNL     1      53.135 155.268  25.289  0.00  0.00    -0.010 S 
ATOM      8  O   UNL     1      53.931 154.055  24.895  0.00  0.00    -0.174 OA
ATOM      9  O   UNL     1      54.107 156.416  25.369  0.00  0.00    -0.174 OA
ATOM     10  H   UNL     1      52.167 155.587  24.389  0.00  0.00    +0.212 HD
ENDBRANCH   1   7
BRANCH   1  11
ATOM     11  N   UNL     1      52.072 156.052  27.644  0.00  0.00    -0.187 NA
BRANCH  11  12
ATOM     12  C   UNL     1      53.260 156.486  28.277  0.00  0.00    +0.123 C 
BRANCH  12  13
ATOM     13  C   UNL     1      53.112 157.911  28.733  0.00  0.00    +0.156 C 
BRANCH  13  14
ATOM     14  O   UNL     1      54.321 158.443  29.192  0.00  0.00    -0.380 OA
ATOM     15  H   UNL     1      54.184 159.360  29.476  0.00  0.00    +0.211 HD
ENDBRANCH  13  14
ENDBRANCH  12  13
ENDBRANCH  11  12
ENDBRANCH   1  11
TORSDOF 5
REMARK  Name = =
REMARK  6 active torsions:
REMARK  status: ('A' for Active; 'I' for Inactive)
REMARK    1  A    between atoms: N_1  and  C_2
REMARK    2  A    between atoms: N_1  and  C_15
REMARK    3  A    between atoms: C_2  and  S_7
REMARK    4  A    between atoms: O_11  and  O_14
REMARK    5  A    between atoms: C_15  and  C_16
REMARK    6  A    between atoms: C_16  and  O_17
REMARK                            x       y       z     vdW  Elec       q    Type
REMARK                         _______ _______ _______ _____ _____    ______ ____
ROOT
ATOM      1  P   UNL     1      51.082 155.412  28.909  0.00  0.00    +0.000 P 
ENDROOT
TORSDOF 0
REMARK  Name = =
REMARK  6 active torsions:
REMARK  status: ('A' for Active; 'I' for Inactive)
REMARK    1  A    between atoms: N_1  and  C_2
REMARK    2  A    between atoms: N_1  and  C_15
REMARK    3  A    between atoms: C_2  and  S_7
REMARK    4  A    between atoms: O_11  and  O_14
REMARK    5  A    between atoms: C_15  and  C_16
REMARK    6  A    between atoms: C_16  and  O_17
REMARK                            x       y       z     vdW  Elec       q    Type
REMARK                         _______ _______ _______ _____ _____    ______ ____
ROOT
ATOM      1  O   UNL     1      50.416 154.402  29.832  0.00  0.00    -0.253 OA
ATOM      2  H   UNL     1      51.284 154.369  29.401  0.00  0.00    +0.253 HD
ENDROOT
BRANCH   1   3
ATOM      3  O   UNL     1      49.463 155.215  28.985  0.00  0.00    -0.253 OA
ATOM      4  H   UNL     1      48.595 155.248  29.416  0.00  0.00    +0.253 HD
ENDBRANCH   1   3
TORSDOF 1
REMARK  Name = =
REMARK  6 active torsions:
REMARK  status: ('A' for Active; 'I' for Inactive)
REMARK    1  A    between atoms: N_1  and  C_2
REMARK    2  A    between atoms: N_1  and  C_15
REMARK    3  A    between atoms: C_2  and  S_7
REMARK    4  A    between atoms: O_11  and  O_14
REMARK    5  A    between atoms: C_15  and  C_16
REMARK    6  A    between atoms: C_16  and  O_17
REMARK                            x       y       z     vdW  Elec       q    Type
REMARK                         _______ _______ _______ _____ _____    ______ ____
ROOT
ATOM      1  O   HOH     1      51.735 155.175  30.396  0.00  0.00    -0.253 OA
ATOM      2  H   HOH     0      52.705 155.175  30.396  0.00  0.00    +0.253 HD
ENDROOT
TORSDOF 0
REMARK  Name = =
REMARK  6 active torsions:
REMARK  status: ('A' for Active; 'I' for Inactive)
REMARK    1  A    between atoms: N_1  and  C_2
REMARK    2  A    between atoms: N_1  and  C_15
REMARK    3  A    between atoms: C_2  and  S_7
REMARK    4  A    between atoms: O_11  and  O_14
REMARK    5  A    between atoms: C_15  and  C_16
REMARK    6  A    between atoms: C_16  and  O_17
REMARK                            x       y       z     vdW  Elec       q    Type
REMARK                         _______ _______ _______ _____ _____    ______ ____
ROOT
ATOM      1  O   HOH     1      50.627 156.856  29.623  0.00  0.00    -0.253 OA
ATOM      2  H   HOH     0      51.597 156.856  29.623  0.00  0.00    +0.253 HD
ENDROOT
TORSDOF 0
