REMARK  Name = =
REMARK  9 active torsions:
REMARK  status: ('A' for Active; 'I' for Inactive)
REMARK    1  A    between atoms: N_1  and  C_2
REMARK    2  A    between atoms: N_1  and  P_10
REMARK    3  A    between atoms: N_1  and  C_16
REMARK    4  A    between atoms: C_2  and  S_7
REMARK    5  A    between atoms: P_10  and  O_12
REMARK    6  A    between atoms: P_10  and  O_13
REMARK    7  A    between atoms: O_14  and  O_15
REMARK    8  A    between atoms: C_16  and  C_17
REMARK    9  A    between atoms: C_17  and  O_18
REMARK                            x       y       z     vdW  Elec       q    Type
REMARK                         _______ _______ _______ _____ _____    ______ ____
ROOT
ATOM      1  N   UNL     1      52.061 155.462  27.652  0.00  0.00    -0.198 NA
ENDROOT
BRANCH   1   2
ATOM      2  C   UNL     1      52.539 154.564  26.746  0.00  0.00    +0.215 C 
ATOM      3  S   UNL     1      53.994 155.450  25.917  0.00  0.00    -0.086 S 
ATOM      4  C   UNL     1      53.981 154.238  24.539  0.00  0.00    +0.131 C 
ATOM      5  N   UNL     1      52.648 153.849  24.453  0.00  0.00    -0.285 NA
ATOM      6  C   UNL     1      51.824 154.240  25.505  0.00  0.00    +0.118 C 
ATOM      7  H   UNL     1      52.624 152.831  24.401  0.00  0.00    +0.124 HD
BRANCH   2   8
ATOM      8  S   UNL     1      53.285 153.135  27.434  0.00  0.00    -0.010 S 
ATOM      9  O   UNL     1      52.391 151.912  27.273  0.00  0.00    -0.174 OA
ATOM     10  O   UNL     1      53.718 153.311  28.868  0.00  0.00    -0.174 OA
ATOM     11  H   UNL     1      54.426 152.932  26.722  0.00  0.00    +0.212 HD
ENDBRANCH   2   8
ENDBRANCH   1   2
BRANCH   1  12
ATOM     12  P   UNL     1      53.050 156.760  28.121  0.00  0.00    +0.160 P 
ATOM     13  H   UNL     1      53.425 156.727  29.449  0.00  0.00    +0.128 HD
BRANCH  12  14
ATOM     14  O   UNL     1      52.183 157.212  26.706  0.00  0.00    -0.346 OA
ATOM     15  H   UNL     1      52.534 156.726  25.943  0.00  0.00    +0.218 HD
ENDBRANCH  12  14
BRANCH  12  16
ATOM     16  O   UNL     1      54.065 157.657  27.177  0.00  0.00    -0.346 OA
ATOM     17  H   UNL     1      53.751 157.642  26.259  0.00  0.00    +0.218 HD
ENDBRANCH  12  16
ENDBRANCH   1  12
BRANCH   1  18
ATOM     18  C   UNL     1      50.892 155.420  28.380  0.00  0.00    +0.113 C 
BRANCH  18  19
ATOM     19  C   UNL     1      50.880 155.116  29.841  0.00  0.00    +0.155 C 
BRANCH  19  20
ATOM     20  O   UNL     1      51.649 154.083  30.275  0.00  0.00    -0.380 OA
ATOM     21  H   UNL     1      51.553 153.990  31.236  0.00  0.00    +0.211 HD
ENDBRANCH  19  20
ENDBRANCH  18  19
ENDBRANCH   1  18
TORSDOF 8
REMARK  Name = =
REMARK  9 active torsions:
REMARK  status: ('A' for Active; 'I' for Inactive)
REMARK    1  A    between atoms: N_1  and  C_2
REMARK    2  A    between atoms: N_1  and  P_10
REMARK    3  A    between atoms: N_1  and  C_16
REMARK    4  A    between atoms: C_2  and  S_7
REMARK    5  A    between atoms: P_10  and  O_12
REMARK    6  A    between atoms: P_10  and  O_13
REMARK    7  A    between atoms: O_14  and  O_15
REMARK    8  A    between atoms: C_16  and  C_17
REMARK    9  A    between atoms: C_17  and  O_18
REMARK                            x       y       z     vdW  Elec       q    Type
REMARK                         _______ _______ _______ _____ _____    ______ ____
ROOT
ATOM      1  O   UNL     1      53.165 156.201  29.491  0.00  0.00    -0.003 OA
ATOM      2  O   UNL     1      52.308 157.481  29.449  0.00  0.00    -0.036 OA
ENDROOT
BRANCH   2   3
ATOM      3  O   UNL     1      52.687 158.757  29.542  0.00  0.00    -0.218 OA
ATOM      4  H   UNL     1      51.908 159.331  29.480  0.00  0.00    +0.256 HD
ENDBRANCH   2   3
TORSDOF 1
