REMARK  Name = =
REMARK  7 active torsions:
REMARK  status: ('A' for Active; 'I' for Inactive)
REMARK    1  A    between atoms: N_1  and  C_2
REMARK    2  A    between atoms: N_1  and  C_18
REMARK    3  A    between atoms: C_2  and  S_7
REMARK    4  A    between atoms: S_7  and  O_11
REMARK    5  A    between atoms: O_13  and  O_15
REMARK    6  A    between atoms: C_18  and  C_19
REMARK    7  A    between atoms: C_19  and  O_20
REMARK                            x       y       z     vdW  Elec       q    Type
REMARK                         _______ _______ _______ _____ _____    ______ ____
ROOT
ATOM      1  C   UNL     1      53.626 153.956  25.881  0.00  0.00    +0.228 C 
ATOM      2  S   UNL     1      55.262 153.939  25.010  0.00  0.00    -0.085 S 
ATOM      3  C   UNL     1      54.638 153.728  23.320  0.00  0.00    +0.131 C 
ATOM      4  N   UNL     1      53.323 153.152  23.657  0.00  0.00    -0.285 NA
ATOM      5  C   UNL     1      52.782 154.133  24.583  0.00  0.00    +0.120 C 
ATOM      6  H   UNL     1      53.423 152.240  24.102  0.00  0.00    +0.124 HD
ENDROOT
BRANCH   1   7
ATOM      7  S   UNL     1      53.393 152.346  26.549  0.00  0.00    +0.015 S 
ATOM      8  O   UNL     1      54.107 152.274  27.875  0.00  0.00    -0.070 OA
ATOM      9  O   UNL     1      54.096 151.348  25.649  0.00  0.00    -0.070 OA
BRANCH   7  11
ATOM     10  C   UNL     1      51.711 150.530  26.994  0.00  0.00    +0.207 C 
ATOM     11  O   UNL     1      51.836 151.886  26.767  0.00  0.00    -0.238 OA
ENDBRANCH   7  11
ENDBRANCH   1   7
BRANCH   1  12
ATOM     12  N   UNL     1      53.457 155.053  26.737  0.00  0.00    -0.187 NA
BRANCH  12  13
ATOM     13  C   UNL     1      53.176 156.343  26.249  0.00  0.00    +0.123 C 
BRANCH  13  14
ATOM     14  C   UNL     1      54.295 157.174  25.748  0.00  0.00    +0.156 C 
BRANCH  14  15
ATOM     15  O   UNL     1      54.658 157.113  24.441  0.00  0.00    -0.380 OA
ATOM     16  H   UNL     1      55.401 157.716  24.283  0.00  0.00    +0.211 HD
ENDBRANCH  14  15
ENDBRANCH  13  14
ENDBRANCH  12  13
ENDBRANCH   1  12
TORSDOF 6
REMARK  Name = =
REMARK  7 active torsions:
REMARK  status: ('A' for Active; 'I' for Inactive)
REMARK    1  A    between atoms: N_1  and  C_2
REMARK    2  A    between atoms: N_1  and  C_18
REMARK    3  A    between atoms: C_2  and  S_7
REMARK    4  A    between atoms: S_7  and  O_11
REMARK    5  A    between atoms: O_13  and  O_15
REMARK    6  A    between atoms: C_18  and  C_19
REMARK    7  A    between atoms: C_19  and  O_20
REMARK                            x       y       z     vdW  Elec       q    Type
REMARK                         _______ _______ _______ _____ _____    ______ ____
ROOT
ATOM      1  P   UNL     1      52.215 154.820  27.957  0.00  0.00    +0.000 P 
ENDROOT
TORSDOF 0
REMARK  Name = =
REMARK  7 active torsions:
REMARK  status: ('A' for Active; 'I' for Inactive)
REMARK    1  A    between atoms: N_1  and  C_2
REMARK    2  A    between atoms: N_1  and  C_18
REMARK    3  A    between atoms: C_2  and  S_7
REMARK    4  A    between atoms: S_7  and  O_11
REMARK    5  A    between atoms: O_13  and  O_15
REMARK    6  A    between atoms: C_18  and  C_19
REMARK    7  A    between atoms: C_19  and  O_20
REMARK                            x       y       z     vdW  Elec       q    Type
REMARK                         _______ _______ _______ _____ _____    ______ ____
ROOT
ATOM      1  O   UNL     1      53.216 155.029  29.052  0.00  0.00    -0.253 OA
ATOM      2  H   UNL     1      53.515 155.127  28.134  0.00  0.00    +0.253 HD
ENDROOT
BRANCH   1   3
ATOM      3  O   UNL     1      52.358 153.760  29.179  0.00  0.00    -0.253 OA
ATOM      4  H   UNL     1      52.059 153.662  30.097  0.00  0.00    +0.253 HD
ENDBRANCH   1   3
TORSDOF 1
REMARK  Name = =
REMARK  7 active torsions:
REMARK  status: ('A' for Active; 'I' for Inactive)
REMARK    1  A    between atoms: N_1  and  C_2
REMARK    2  A    between atoms: N_1  and  C_18
REMARK    3  A    between atoms: C_2  and  S_7
REMARK    4  A    between atoms: S_7  and  O_11
REMARK    5  A    between atoms: O_13  and  O_15
REMARK    6  A    between atoms: C_18  and  C_19
REMARK    7  A    between atoms: C_19  and  O_20
REMARK                            x       y       z     vdW  Elec       q    Type
REMARK                         _______ _______ _______ _____ _____    ______ ____
ROOT
ATOM      1  O   HOH     1      50.701 154.670  27.180  0.00  0.00    -0.253 OA
ATOM      2  H   HOH     0      51.671 154.670  27.180  0.00  0.00    +0.253 HD
ENDROOT
TORSDOF 0
REMARK  Name = =
REMARK  7 active torsions:
REMARK  status: ('A' for Active; 'I' for Inactive)
REMARK    1  A    between atoms: N_1  and  C_2
REMARK    2  A    between atoms: N_1  and  C_18
REMARK    3  A    between atoms: C_2  and  S_7
REMARK    4  A    between atoms: S_7  and  O_11
REMARK    5  A    between atoms: O_13  and  O_15
REMARK    6  A    between atoms: C_18  and  C_19
REMARK    7  A    between atoms: C_19  and  O_20
REMARK                            x       y       z     vdW  Elec       q    Type
REMARK                         _______ _______ _______ _____ _____    ______ ____
ROOT
ATOM      1  O   UNL     1      52.189 156.450  28.398  0.00  0.00    -0.038 OA
ATOM      2  O   UNL     1      51.212 156.694  29.232  0.00  0.00    -0.218 OA
ATOM      3  H   UNL     1      50.536 156.004  29.149  0.00  0.00    +0.256 HD
ENDROOT
TORSDOF 0
