REMARK  Name = =
REMARK  11 active torsions:
REMARK  status: ('A' for Active; 'I' for Inactive)
REMARK    1  A    between atoms: C_1  and  S_6
REMARK    2  A    between atoms: C_1  and  N_17
REMARK    3  A    between atoms: S_6  and  O_9
REMARK    4  A    between atoms: O_9  and  C_10
REMARK    5  A    between atoms: C_10  and  C_12
REMARK    6  A    between atoms: N_17  and  C_24
REMARK    7  A    between atoms: O_19  and  O_20
REMARK    8  A    between atoms: O_19  and  O_21
REMARK    9  A    between atoms: O_22  and  O_23
REMARK   10  A    between atoms: C_24  and  C_25
REMARK   11  A    between atoms: C_25  and  O_26
REMARK                            x       y       z     vdW  Elec       q    Type
REMARK                         _______ _______ _______ _____ _____    ______ ____
ROOT
ATOM      1  C   UNL     1      52.797 153.514  26.660  0.00  0.00    +0.220 C 
ATOM      2  S   UNL     1      53.123 152.804  28.341  0.00  0.00    -0.086 S 
ATOM      3  C   UNL     1      51.861 151.496  28.270  0.00  0.00    +0.131 C 
ATOM      4  N   UNL     1      51.649 151.417  26.841  0.00  0.00    -0.285 NA
ATOM      5  C   UNL     1      51.610 152.737  26.301  0.00  0.00    +0.119 C 
ATOM      6  H   UNL     1      50.765 150.945  26.653  0.00  0.00    +0.124 HD
ENDROOT
BRANCH   1   7
ATOM      7  S   UNL     1      52.235 155.198  26.974  0.00  0.00    +0.014 S 
ATOM      8  O   UNL     1      52.383 156.087  25.805  0.00  0.00    -0.070 OA
ATOM      9  O   UNL     1      50.795 155.222  27.385  0.00  0.00    -0.070 OA
BRANCH   7  10
ATOM     10  O   UNL     1      53.113 155.798  28.307  0.00  0.00    -0.240 OA
BRANCH  10  11
ATOM     11  C   UNL     1      53.227 157.160  28.221  0.00  0.00    +0.173 C 
BRANCH  11  13
ATOM     12  C   UNL     1      51.011 157.480  29.398  0.00  0.00    +0.067 C 
ATOM     13  C   UNL     1      52.254 157.863  29.115  0.00  0.00    +0.040 C 
ATOM     14  C   UNL     1      52.546 159.125  29.840  0.00  0.00    +0.011 C 
ATOM     15  C   UNL     1      51.151 159.703  30.118  0.00  0.00    +0.065 C 
ATOM     16  C   UNL     1      50.393 158.426  30.309  0.00  0.00    +0.151 C 
ATOM     17  O   UNL     1      49.435 158.284  31.110  0.00  0.00    -0.296 OA
ENDBRANCH  11  13
ENDBRANCH  10  11
ENDBRANCH   7  10
ENDBRANCH   1   7
BRANCH   1  18
ATOM     18  N   UNL     1      53.988 153.401  25.957  0.00  0.00    -0.224 NA
ATOM     19  P   UNL     1      54.580 151.952  25.415  0.00  0.00    +0.062 P 
BRANCH  18  20
ATOM     20  C   UNL     1      54.673 154.568  25.641  0.00  0.00    +0.110 C 
BRANCH  20  21
ATOM     21  C   UNL     1      54.708 155.038  24.219  0.00  0.00    +0.155 C 
BRANCH  21  22
ATOM     22  O   UNL     1      55.804 154.349  23.614  0.00  0.00    -0.380 OA
ATOM     23  H   UNL     1      55.879 154.614  22.684  0.00  0.00    +0.211 HD
ENDBRANCH  21  22
ENDBRANCH  20  21
ENDBRANCH  18  20
ENDBRANCH   1  18
TORSDOF 8
REMARK  Name = =
REMARK  11 active torsions:
REMARK  status: ('A' for Active; 'I' for Inactive)
REMARK    1  A    between atoms: C_1  and  S_6
REMARK    2  A    between atoms: C_1  and  N_17
REMARK    3  A    between atoms: S_6  and  O_9
REMARK    4  A    between atoms: O_9  and  C_10
REMARK    5  A    between atoms: C_10  and  C_12
REMARK    6  A    between atoms: N_17  and  C_24
REMARK    7  A    between atoms: O_19  and  O_20
REMARK    8  A    between atoms: O_19  and  O_21
REMARK    9  A    between atoms: O_22  and  O_23
REMARK   10  A    between atoms: C_24  and  C_25
REMARK   11  A    between atoms: C_25  and  O_26
REMARK                            x       y       z     vdW  Elec       q    Type
REMARK                         _______ _______ _______ _____ _____    ______ ____
ROOT
ATOM      1  O   UNL     1      56.047 152.007  25.060  0.00  0.00    -0.072 OA
ENDROOT
BRANCH   1   2
ATOM      2  O   UNL     1      55.145 151.961  23.872  0.00  0.00    -0.220 OA
ATOM      3  H   UNL     1      55.678 151.911  23.063  0.00  0.00    +0.256 HD
ENDBRANCH   1   2
BRANCH   1   4
ATOM      4  O   UNL     1      55.853 152.084  26.503  0.00  0.00    -0.220 OA
ATOM      5  H   UNL     1      56.716 152.092  26.945  0.00  0.00    +0.256 HD
ENDBRANCH   1   4
TORSDOF 2
REMARK  Name = =
REMARK  11 active torsions:
REMARK  status: ('A' for Active; 'I' for Inactive)
REMARK    1  A    between atoms: C_1  and  S_6
REMARK    2  A    between atoms: C_1  and  N_17
REMARK    3  A    between atoms: S_6  and  O_9
REMARK    4  A    between atoms: O_9  and  C_10
REMARK    5  A    between atoms: C_10  and  C_12
REMARK    6  A    between atoms: N_17  and  C_24
REMARK    7  A    between atoms: O_19  and  O_20
REMARK    8  A    between atoms: O_19  and  O_21
REMARK    9  A    between atoms: O_22  and  O_23
REMARK   10  A    between atoms: C_24  and  C_25
REMARK   11  A    between atoms: C_25  and  O_26
REMARK                            x       y       z     vdW  Elec       q    Type
REMARK                         _______ _______ _______ _____ _____    ______ ____
ROOT
ATOM      1  O   UNL     1      53.648 150.572  25.385  0.00  0.00    -0.253 OA
ATOM      2  H   UNL     1      53.365 150.346  26.285  0.00  0.00    +0.253 HD
ENDROOT
BRANCH   1   3
ATOM      3  O   UNL     1      54.394 149.580  24.890  0.00  0.00    -0.253 OA
ATOM      4  H   UNL     1      54.677 149.806  23.990  0.00  0.00    +0.253 HD
ENDBRANCH   1   3
TORSDOF 1
