REMARK  Name = =
REMARK  13 active torsions:
REMARK  status: ('A' for Active; 'I' for Inactive)
REMARK    1  A    between atoms: C_1  and  S_6
REMARK    2  A    between atoms: C_1  and  N_23
REMARK    3  A    between atoms: S_6  and  O_9
REMARK    4  A    between atoms: O_9  and  C_10
REMARK    5  A    between atoms: C_10  and  C_12
REMARK    6  A    between atoms: C_11  and  C_19
REMARK    7  A    between atoms: N_23  and  C_30
REMARK    8  A    between atoms: P_24  and  O_26
REMARK    9  A    between atoms: O_25  and  O_27
REMARK   10  A    between atoms: O_25  and  O_28
REMARK   11  A    between atoms: O_28  and  O_29
REMARK   12  A    between atoms: C_30  and  C_31
REMARK   13  A    between atoms: C_31  and  O_32
REMARK                            x       y       z     vdW  Elec       q    Type
REMARK                         _______ _______ _______ _____ _____    ______ ____
ROOT
ATOM      1  O   UNL     1      50.380 157.162  30.032  0.00  0.00    -0.236 OA
ENDROOT
BRANCH   1   2
ATOM      2  S   UNL     1      50.915 155.806  29.341  0.00  0.00    +0.015 S 
ATOM      3  O   UNL     1      51.376 154.900  30.526  0.00  0.00    -0.070 OA
ATOM      4  O   UNL     1      49.680 154.948  28.857  0.00  0.00    -0.070 OA
BRANCH   2   5
ATOM      5  C   UNL     1      52.114 155.802  28.115  0.00  0.00    +0.228 C 
ATOM      6  S   UNL     1      53.752 155.968  29.153  0.00  0.00    -0.085 S 
ATOM      7  C   UNL     1      53.606 157.759  29.341  0.00  0.00    +0.131 C 
ATOM      8  N   UNL     1      52.658 158.136  28.372  0.00  0.00    -0.285 NA
ATOM      9  C   UNL     1      52.418 157.120  27.421  0.00  0.00    +0.120 C 
ATOM     10  H   UNL     1      53.000 158.964  27.885  0.00  0.00    +0.124 HD
BRANCH   5  11
ATOM     11  N   UNL     1      52.338 154.665  27.284  0.00  0.00    -0.187 NA
BRANCH  11  12
ATOM     12  C   UNL     1      53.210 153.715  27.995  0.00  0.00    +0.123 C 
BRANCH  12  13
ATOM     13  C   UNL     1      52.622 152.368  28.197  0.00  0.00    +0.156 C 
BRANCH  13  14
ATOM     14  O   UNL     1      51.466 152.147  28.823  0.00  0.00    -0.380 OA
ATOM     15  H   UNL     1      51.282 151.195  28.836  0.00  0.00    +0.211 HD
ENDBRANCH  13  14
ENDBRANCH  12  13
ENDBRANCH  11  12
ENDBRANCH   5  11
ENDBRANCH   2   5
ENDBRANCH   1   2
BRANCH   1  16
ATOM     16  C   UNL     1      50.741 158.396  29.699  0.00  0.00    +0.195 C 
BRANCH  16  18
ATOM     17  C   UNL     1      50.471 160.510  31.040  0.00  0.00    +0.084 C 
ATOM     18  C   UNL     1      49.959 159.437  30.507  0.00  0.00    -0.005 C 
ATOM     19  C   UNL     1      48.496 159.337  30.758  0.00  0.00    +0.033 C 
ATOM     20  C   UNL     1      48.111 160.692  31.270  0.00  0.00    +0.074 C 
ATOM     21  C   UNL     1      49.393 161.268  31.716  0.00  0.00    +0.177 C 
ATOM     22  O   UNL     1      49.550 162.224  32.520  0.00  0.00    -0.291 OA
BRANCH  17  25
ATOM     23  N   UNL     1      53.873 161.431  30.294  0.00  0.00    -0.208 N 
ATOM     24  N   UNL     1      52.684 160.933  29.968  0.00  0.00    -0.129 NA
ATOM     25  C   UNL     1      51.872 160.976  31.023  0.00  0.00    +0.253 A 
ATOM     26  O   UNL     1      52.562 161.500  31.999  0.00  0.00    -0.388 OA
ATOM     27  C   UNL     1      53.785 161.787  31.589  0.00  0.00    +0.436 A 
ATOM     28  O   UNL     1      54.729 162.298  32.236  0.00  0.00    -0.221 OA
ATOM     29  H   UNL     1      54.658 161.521  29.707  0.00  0.00    +0.195 HD
ENDBRANCH  17  25
ENDBRANCH  16  18
ENDBRANCH   1  16
TORSDOF 9
REMARK  Name = =
REMARK  13 active torsions:
REMARK  status: ('A' for Active; 'I' for Inactive)
REMARK    1  A    between atoms: C_1  and  S_6
REMARK    2  A    between atoms: C_1  and  N_23
REMARK    3  A    between atoms: S_6  and  O_9
REMARK    4  A    between atoms: O_9  and  C_10
REMARK    5  A    between atoms: C_10  and  C_12
REMARK    6  A    between atoms: C_11  and  C_19
REMARK    7  A    between atoms: N_23  and  C_30
REMARK    8  A    between atoms: P_24  and  O_26
REMARK    9  A    between atoms: O_25  and  O_27
REMARK   10  A    between atoms: O_25  and  O_28
REMARK   11  A    between atoms: O_28  and  O_29
REMARK   12  A    between atoms: C_30  and  C_31
REMARK   13  A    between atoms: C_31  and  O_32
REMARK                            x       y       z     vdW  Elec       q    Type
REMARK                         _______ _______ _______ _____ _____    ______ ____
ROOT
ATOM      1  P   UNL     1      53.013 155.218  25.806  0.00  0.00    +0.061 P 
ATOM      2  H   UNL     1      53.744 154.970  24.662  0.00  0.00    +0.094 HD
ENDROOT
BRANCH   1   3
ATOM      3  O   UNL     1      51.514 154.443  25.696  0.00  0.00    -0.369 OA
ATOM      4  H   UNL     1      51.000 154.618  26.500  0.00  0.00    +0.215 HD
ENDBRANCH   1   3
TORSDOF 1
REMARK  Name = =
REMARK  13 active torsions:
REMARK  status: ('A' for Active; 'I' for Inactive)
REMARK    1  A    between atoms: C_1  and  S_6
REMARK    2  A    between atoms: C_1  and  N_23
REMARK    3  A    between atoms: S_6  and  O_9
REMARK    4  A    between atoms: O_9  and  C_10
REMARK    5  A    between atoms: C_10  and  C_12
REMARK    6  A    between atoms: C_11  and  C_19
REMARK    7  A    between atoms: N_23  and  C_30
REMARK    8  A    between atoms: P_24  and  O_26
REMARK    9  A    between atoms: O_25  and  O_27
REMARK   10  A    between atoms: O_25  and  O_28
REMARK   11  A    between atoms: O_28  and  O_29
REMARK   12  A    between atoms: C_30  and  C_31
REMARK   13  A    between atoms: C_31  and  O_32
REMARK                            x       y       z     vdW  Elec       q    Type
REMARK                         _______ _______ _______ _____ _____    ______ ____
ROOT
ATOM      1  O   UNL     1      52.975 153.726  25.569  0.00  0.00    -0.038 OA
ENDROOT
BRANCH   1   2
ATOM      2  O   UNL     1      53.166 154.518  24.331  0.00  0.00    -0.218 OA
ATOM      3  H   UNL     1      52.322 154.589  23.859  0.00  0.00    +0.256 HD
ENDBRANCH   1   2
BRANCH   1   4
ATOM      4  O   UNL     1      54.188 154.008  25.609  0.00  0.00    -0.038 OA
BRANCH   4   5
ATOM      5  O   UNL     1      55.148 154.506  24.865  0.00  0.00    -0.218 OA
ATOM      6  H   UNL     1      55.974 154.527  25.374  0.00  0.00    +0.256 HD
ENDBRANCH   4   5
ENDBRANCH   1   4
TORSDOF 3
