REMARK  Name = =
REMARK  11 active torsions:
REMARK  status: ('A' for Active; 'I' for Inactive)
REMARK    1  A    between atoms: C_1  and  O_22
REMARK    2  A    between atoms: C_2  and  C_11
REMARK    3  A    between atoms: O_22  and  P_23
REMARK    4  A    between atoms: P_23  and  O_25
REMARK    5  A    between atoms: P_23  and  O_30
REMARK    6  A    between atoms: O_25  and  P_26
REMARK    7  A    between atoms: P_26  and  O_28
REMARK    8  A    between atoms: P_26  and  O_29
REMARK    9  A    between atoms: O_30  and  P_31
REMARK   10  A    between atoms: P_31  and  O_33
REMARK   11  A    between atoms: P_31  and  O_34
REMARK                            x       y       z     vdW  Elec       q    Type
REMARK                         _______ _______ _______ _____ _____    ______ ____
ROOT
ATOM      1  C   UNL     1      51.732 161.939  31.038  0.00  0.00    +0.134 C 
ATOM      2  C   UNL     1      52.504 160.900  30.592  0.00  0.00    +0.105 C 
ATOM      3  C   UNL     1      53.866 161.077  30.449  0.00  0.00    +0.023 C 
ATOM      4  C   UNL     1      54.495 162.274  30.738  0.00  0.00    +0.142 C 
ATOM      5  C   UNL     1      53.736 163.327  31.184  0.00  0.00    +0.040 C 
ATOM      6  C   UNL     1      52.405 163.151  31.324  0.00  0.00    +0.037 C 
ATOM      7  O   UNL     1      55.844 162.440  30.594  0.00  0.00    -0.451 OA
ATOM      8  C   UNL     1      56.692 161.446  30.137  0.00  0.00    +0.179 C 
ATOM      9  C   UNL     1      56.026 160.186  29.835  0.00  0.00    +0.040 C 
ATOM     10  C   UNL     1      54.731 160.012  29.976  0.00  0.00    +0.003 C 
ENDROOT
BRANCH   2  11
ATOM     11  C   UNL     1      51.993 159.584  30.215  0.00  0.00    -0.011 C 
ATOM     12  C   UNL     1      52.658 158.811  29.255  0.00  0.00    -0.007 C 
ATOM     13  C   UNL     1      52.156 157.548  28.925  0.00  0.00    -0.009 C 
ATOM     14  C   UNL     1      51.030 157.045  29.516  0.00  0.00    +0.046 C 
ATOM     15  C   UNL     1      50.359 157.805  30.472  0.00  0.00    +0.014 C 
ATOM     16  C   UNL     1      50.863 159.046  30.788  0.00  0.00    -0.002 C 
ATOM     17  N   UNL     1      50.538 155.759  29.166  0.00  0.00    -0.284 N 
ATOM     18  C   UNL     1      51.242 155.009  28.194  0.00  0.00    +0.226 C 
ATOM     19  O   UNL     1      50.657 154.167  27.501  0.00  0.00    -0.275 OA
ATOM     20  C   UNL     1      52.708 155.302  28.067  0.00  0.00    +0.090 C 
ATOM     21  C   UNL     1      52.933 156.789  27.882  0.00  0.00    +0.037 C 
ATOM     22  H   UNL     1      49.726 155.398  29.590  0.00  0.00    +0.155 HD
ENDBRANCH   2  11
BRANCH   1  23
ATOM     23  O   UNL     1      50.412 161.895  31.223  0.00  0.00    -0.406 OA
BRANCH  23  24
ATOM     24  P   UNL     1      49.033 161.202  30.705  0.00  0.00    +0.550 P 
ATOM     25  O   UNL     1      49.007 160.808  29.227  0.00  0.00    -0.214 OA
BRANCH  24  26
ATOM     26  O   UNL     1      48.626 159.823  31.638  0.00  0.00    -0.176 OA
BRANCH  26  27
ATOM     27  P   UNL     1      47.108 159.242  31.239  0.00  0.00    +0.482 P 
ATOM     28  O   UNL     1      46.434 158.696  32.477  0.00  0.00    -0.227 OA
BRANCH  27  29
ATOM     29  O   UNL     1      47.196 157.978  30.118  0.00  0.00    -0.302 OA
ATOM     30  H   UNL     1      47.714 157.249  30.493  0.00  0.00    +0.222 HD
ENDBRANCH  27  29
BRANCH  27  31
ATOM     31  O   UNL     1      46.210 160.487  30.567  0.00  0.00    -0.302 OA
ATOM     32  H   UNL     1      46.151 161.220  31.199  0.00  0.00    +0.222 HD
ENDBRANCH  27  31
ENDBRANCH  26  27
ENDBRANCH  24  26
BRANCH  24  33
ATOM     33  O   UNL     1      47.740 162.333  30.836  0.00  0.00    -0.176 OA
BRANCH  33  34
ATOM     34  P   UNL     1      47.923 163.333  32.160  0.00  0.00    +0.482 P 
ATOM     35  O   UNL     1      46.916 164.459  32.187  0.00  0.00    -0.227 OA
BRANCH  34  36
ATOM     36  O   UNL     1      47.860 162.498  33.628  0.00  0.00    -0.302 OA
ATOM     37  H   UNL     1      46.991 162.079  33.724  0.00  0.00    +0.222 HD
ENDBRANCH  34  36
BRANCH  34  38
ATOM     38  O   UNL     1      49.473 164.045  32.053  0.00  0.00    -0.302 OA
ATOM     39  H   UNL     1      49.547 164.535  31.219  0.00  0.00    +0.222 HD
ENDBRANCH  34  38
ENDBRANCH  33  34
ENDBRANCH  24  33
ENDBRANCH  23  24
ENDBRANCH   1  23
TORSDOF 11
