REMARK  Name = =
REMARK  5 active torsions:
REMARK  status: ('A' for Active; 'I' for Inactive)
REMARK    1  A    between atoms: C_1  and  C_15
REMARK    2  A    between atoms: C_2  and  C_19
REMARK    3  A    between atoms: C_6  and  C_16
REMARK    4  A    between atoms: C_16  and  O_18
REMARK    5  A    between atoms: C_19  and  O_21
REMARK                            x       y       z     vdW  Elec       q    Type
REMARK                         _______ _______ _______ _____ _____    ______ ____
ROOT
ATOM      1  C   UNL     1      49.988 159.699  29.843  0.00  0.00    +0.010 C 
ATOM      2  C   UNL     1      50.808 158.510  29.907  0.00  0.00    +0.071 C 
ATOM      3  C   UNL     1      50.262 157.369  30.298  0.00  0.00    +0.121 C 
ATOM      4  N   UNL     1      48.899 157.212  30.654  0.00  0.00    -0.328 N 
ATOM      5  C   UNL     1      48.079 158.347  30.570  0.00  0.00    +0.064 C 
ATOM      6  C   UNL     1      48.577 159.511  30.184  0.00  0.00    +0.087 C 
ATOM      7  H   UNL     1      48.543 156.343  30.948  0.00  0.00    +0.147 HD
ENDROOT
BRANCH   1  16
ATOM      8  N   UNL     1      48.275 160.780  32.660  0.00  0.00    -0.313 N 
ATOM      9  C   UNL     1      49.652 160.721  32.930  0.00  0.00    +0.301 C 
ATOM     10  O   UNL     1      49.961 160.613  34.146  0.00  0.00    -0.253 OA
ATOM     11  N   UNL     1      50.707 160.772  31.991  0.00  0.00    -0.257 N 
ATOM     12  C   UNL     1      52.066 160.721  32.512  0.00  0.00    +0.127 C 
ATOM     13  C   UNL     1      52.741 161.941  31.853  0.00  0.00    +0.164 C 
ATOM     14  O   UNL     1      52.844 161.779  30.513  0.00  0.00    -0.350 OA
ATOM     15  C   UNL     1      51.648 161.596  29.868  0.00  0.00    +0.166 C 
ATOM     16  C   UNL     1      50.567 160.884  30.583  0.00  0.00    +0.129 C 
ATOM     17  H   UNL     1      47.626 160.735  33.399  0.00  0.00    +0.146 HD
ATOM     18  H   UNL     1      47.959 160.866  31.732  0.00  0.00    +0.146 HD
ENDBRANCH   1  16
BRANCH   6  19
ATOM     19  C   UNL     1      47.600 160.621  30.022  0.00  0.00    +0.339 C 
ATOM     20  O   UNL     1      47.923 161.755  29.644  0.00  0.00    -0.245 OA
BRANCH  19  21
ATOM     21  O   UNL     1      46.264 160.382  30.309  0.00  0.00    -0.477 OA
ATOM     22  H   UNL     1      45.991 159.533  30.597  0.00  0.00    +0.295 HD
ENDBRANCH  19  21
ENDBRANCH   6  19
BRANCH   2  23
ATOM     23  C   UNL     1      52.211 158.415  29.524  0.00  0.00    +0.335 C 
ATOM     24  O   UNL     1      53.079 159.289  29.661  0.00  0.00    -0.245 OA
BRANCH  23  25
ATOM     25  O   UNL     1      52.698 157.231  28.930  0.00  0.00    -0.477 OA
ATOM     26  H   UNL     1      52.120 156.509  28.783  0.00  0.00    +0.295 HD
ENDBRANCH  23  25
ENDBRANCH   2  23
TORSDOF 5
