MODEL 1
REMARK VINA RESULT:    -5.272      0.000      0.000
REMARK INTER + INTRA:          -8.037
REMARK INTER:                  -7.737
REMARK INTRA:                  -0.300
REMARK UNBOUND:                -0.300
REMARK  Name = =
REMARK  9 active torsions:
REMARK  status: ('A' for Active; 'I' for Inactive)
REMARK    1  A    between atoms: C_1  and  N_19
REMARK    2  A    between atoms: C_1  and  N_21
REMARK    3  A    between atoms: C_5  and  S_33
REMARK    4  A    between atoms: N_21  and  S_22
REMARK    5  A    between atoms: N_21  and  N_26
REMARK    6  A    between atoms: S_22  and  O_25
REMARK    7  A    between atoms: N_26  and  S_27
REMARK    8  A    between atoms: S_27  and  N_30
REMARK    9  A    between atoms: S_33  and  S_34
REMARK                            x       y       z     vdW  Elec       q    Type
REMARK                         _______ _______ _______ _____ _____    ______ ____
ROOT
ATOM      1  C   UNL     1      60.593 164.931  36.432  0.00  0.00    +0.205 C 
ATOM      2  C   UNL     1      59.521 164.435  37.387  0.00  0.00    +0.044 C 
ATOM      3  C   UNL     1      59.925 164.694  38.815  0.00  0.00    +0.004 C 
ATOM      4  C   UNL     1      58.878 164.084  39.753  0.00  0.00    +0.012 C 
ATOM      5  C   UNL     1      59.633 163.170  40.650  0.00  0.00    +0.058 C 
ATOM      6  C   UNL     1      60.932 162.836  40.003  0.00  0.00    +0.012 C 
ATOM      7  C   UNL     1      61.224 164.007  39.080  0.00  0.00    +0.001 C 
ATOM      8  C   UNL     1      61.802 163.380  37.818  0.00  0.00    +0.004 C 
ATOM      9  C   UNL     1      63.114 162.720  38.165  0.00  0.00    +0.004 C 
ATOM     10  C   UNL     1      63.974 163.842  38.729  0.00  0.00    +0.022 C 
ATOM     11  C   UNL     1      64.195 164.739  37.545  0.00  0.00    -0.042 C 
ATOM     12  C   UNL     1      65.423 164.804  37.090  0.00  0.00    +0.029 C 
ATOM     13  C   UNL     1      65.700 165.653  35.950  0.00  0.00    +0.173 C 
ATOM     14  O   UNL     1      66.675 165.432  35.213  0.00  0.00    -0.291 OA
ATOM     15  C   UNL     1      64.751 166.772  35.750  0.00  0.00    +0.069 C 
ATOM     16  C   UNL     1      63.372 166.089  35.709  0.00  0.00    +0.012 C 
ATOM     17  C   UNL     1      63.008 165.447  37.020  0.00  0.00    +0.022 C 
ATOM     18  C   UNL     1      61.936 164.424  36.775  0.00  0.00    +0.045 C 
ENDROOT
BRANCH   1  19
ATOM     19  N   UNL     1      60.246 164.290  35.159  0.00  0.00    -0.042 NA
ATOM     20  O   UNL     1      59.791 163.185  35.151  0.00  0.00    -0.147 OA
ENDBRANCH   1  19
BRANCH   1  21
ATOM     21  N   UNL     1      60.489 166.346  36.154  0.00  0.00    -0.059 NA
BRANCH  21  22
ATOM     22  S   UNL     1      59.903 166.611  34.590  0.00  0.00    +0.064 S 
ATOM     23  O   UNL     1      58.631 165.923  34.269  0.00  0.00    -0.054 OA
ATOM     24  O   UNL     1      59.588 168.105  34.495  0.00  0.00    -0.054 OA
BRANCH  22  25
ATOM     25  O   UNL     1      61.055 166.290  33.433  0.00  0.00    -0.257 OA
ATOM     26  H   UNL     1      60.620 166.026  32.608  0.00  0.00    +0.244 HD
ENDBRANCH  22  25
ENDBRANCH  21  22
BRANCH  21  27
ATOM     27  N   UNL     1      59.928 167.039  37.187  0.00  0.00    -0.087 NA
ATOM     28  H   UNL     1      59.666 166.348  37.891  0.00  0.00    +0.171 HD
BRANCH  27  29
ATOM     29  S   UNL     1      60.785 168.231  37.986  0.00  0.00    +0.126 S 
ATOM     30  O   UNL     1      61.622 168.967  36.933  0.00  0.00    -0.137 OA
ATOM     31  O   UNL     1      61.788 167.756  38.981  0.00  0.00    -0.137 OA
BRANCH  29  32
ATOM     32  N   UNL     1      59.744 169.441  38.635  0.00  0.00    -0.167 N 
ATOM     33  C   UNL     1      58.550 169.062  39.306  0.00  0.00    +0.320 C 
ATOM     34  O   UNL     1      58.318 167.837  39.386  0.00  0.00    -0.263 OA
ATOM     35  H   UNL     1      59.975 170.394  38.540  0.00  0.00    +0.178 HD
ENDBRANCH  29  32
ENDBRANCH  27  29
ENDBRANCH  21  27
ENDBRANCH   1  21
BRANCH   5  36
ATOM     36  S   UNL     1      58.786 161.641  41.071  0.00  0.00    -0.087 S 
BRANCH  36  37
ATOM     37  S   UNL     1      58.453 160.412  39.400  0.00  0.00    -0.110 S 
ATOM     38  H   UNL     1      59.647 160.071  38.843  0.00  0.00    +0.114 HD
ENDBRANCH  36  37
ENDBRANCH   5  36
TORSDOF 9
ENDMDL
