REMARK  Name = =
REMARK  4 active torsions:
REMARK  status: ('A' for Active; 'I' for Inactive)
REMARK    1  A    between atoms: C_1  and  N_19
REMARK    2  A    between atoms: N_19  and  S_20
REMARK    3  A    between atoms: S_20  and  N_23
REMARK    4  A    between atoms: C_24  and  O_26
REMARK                            x       y       z     vdW  Elec       q    Type
REMARK                         _______ _______ _______ _____ _____    ______ ____
ROOT
ATOM      1  C   UNL     1      50.623 157.162  30.088  0.00  0.00    +0.077 C 
ATOM      2  C   UNL     1      49.321 157.081  30.858  0.00  0.00    +0.017 C 
ATOM      3  C   UNL     1      48.528 158.309  30.434  0.00  0.00    +0.001 C 
ATOM      4  C   UNL     1      49.491 159.181  29.668  0.00  0.00    +0.001 C 
ATOM      5  C   UNL     1      50.840 158.680  30.040  0.00  0.00    +0.016 C 
ATOM      6  C   UNL     1      51.343 159.086  31.382  0.00  0.00    +0.001 C 
ATOM      7  C   UNL     1      51.180 160.562  31.547  0.00  0.00    +0.001 C 
ATOM      8  C   UNL     1      49.859 161.120  31.203  0.00  0.00    +0.008 C 
ATOM      9  C   UNL     1      49.284 160.653  29.894  0.00  0.00    +0.001 C 
ATOM     10  C   UNL     1      47.845 161.018  29.788  0.00  0.00    +0.004 C 
ATOM     11  C   UNL     1      47.491 162.314  30.483  0.00  0.00    +0.022 C 
ATOM     12  C   UNL     1      47.848 162.163  31.903  0.00  0.00    -0.037 C 
ATOM     13  C   UNL     1      47.345 162.953  32.815  0.00  0.00    +0.034 C 
ATOM     14  C   UNL     1      47.732 162.770  34.240  0.00  0.00    +0.195 C 
ATOM     15  O   UNL     1      47.259 163.519  35.125  0.00  0.00    -0.287 OA
ATOM     16  C   UNL     1      48.663 161.715  34.589  0.00  0.00    +0.038 C 
ATOM     17  C   UNL     1      49.131 160.949  33.613  0.00  0.00    -0.019 C 
ATOM     18  C   UNL     1      48.792 161.070  32.219  0.00  0.00    +0.040 C 
ENDROOT
BRANCH   1  19
ATOM     19  N   UNL     1      50.473 156.663  28.742  0.00  0.00    -0.168 NA
ATOM     20  H   UNL     1      50.630 157.426  28.083  0.00  0.00    +0.150 HD
BRANCH  19  21
ATOM     21  S   UNL     1      51.598 155.410  28.428  0.00  0.00    +0.114 S 
ATOM     22  O   UNL     1      52.191 154.941  29.749  0.00  0.00    -0.138 OA
ATOM     23  O   UNL     1      50.976 154.229  27.741  0.00  0.00    -0.138 OA
BRANCH  21  24
ATOM     24  N   UNL     1      52.954 155.997  27.502  0.00  0.00    -0.141 N 
ATOM     25  C   UNL     1      53.336 155.309  26.339  0.00  0.00    +0.418 C 
ATOM     26  O   UNL     1      52.667 154.278  26.014  0.00  0.00    -0.225 OA
ATOM     27  H   UNL     1      53.445 156.800  27.791  0.00  0.00    +0.181 HD
BRANCH  25  28
ATOM     28  O   UNL     1      54.398 155.684  25.521  0.00  0.00    -0.465 OA
ATOM     29  H   UNL     1      54.910 156.439  25.734  0.00  0.00    +0.297 HD
ENDBRANCH  25  28
ENDBRANCH  21  24
ENDBRANCH  19  21
ENDBRANCH   1  19
TORSDOF 4
