MODEL 1
REMARK VINA RESULT:    -8.790      0.000      0.000
REMARK INTER + INTRA:         -15.768
REMARK INTER:                 -13.672
REMARK INTRA:                  -2.096
REMARK UNBOUND:                -2.096
REMARK  Name = =
REMARK  10 active torsions:
REMARK  status: ('A' for Active; 'I' for Inactive)
REMARK    1  A    between atoms: N_1  and  C_8
REMARK    2  A    between atoms: N_1  and  C_12
REMARK    3  A    between atoms: N_1  and  C_17
REMARK    4  A    between atoms: C_12  and  O_14
REMARK    5  A    between atoms: O_14  and  S_15
REMARK    6  A    between atoms: C_17  and  C_18
REMARK    7  A    between atoms: C_18  and  O_21
REMARK    8  A    between atoms: N_19  and  O_20
REMARK    9  A    between atoms: O_21  and  N_22
REMARK   10  A    between atoms: N_22  and  N_24
REMARK                            x       y       z     vdW  Elec       q    Type
REMARK                         _______ _______ _______ _____ _____    ______ ____
ROOT
ATOM      1  N   UNL     1     -11.834 -43.317  32.153  0.00  0.00    -0.243 N 
ENDROOT
BRANCH   1   8
ATOM      2  C   UNL     1      -8.784 -42.769  30.192  0.00  0.00    +0.136 C 
ATOM      3  C   UNL     1     -10.090 -42.643  30.658  0.00  0.00    +0.026 C 
ATOM      4  C   UNL     1     -10.915 -41.633  29.990  0.00  0.00    +0.035 C 
ATOM      5  C   UNL     1     -10.749 -41.883  28.488  0.00  0.00    +0.052 C 
ATOM      6  C   UNL     1      -9.322 -41.582  28.080  0.00  0.00    +0.206 C 
ATOM      7  O   UNL     1      -8.424 -41.883  29.157  0.00  0.00    -0.476 OA
ATOM      8  C   UNL     1     -10.517 -43.460  31.655  0.00  0.00    +0.054 C 
ATOM      9  C   UNL     1      -9.637 -44.403  32.183  0.00  0.00    +0.015 C 
ATOM     10  C   UNL     1      -8.344 -44.550  31.739  0.00  0.00    +0.004 C 
ATOM     11  C   UNL     1      -7.926 -43.699  30.716  0.00  0.00    +0.037 C 
ENDBRANCH   1   8
BRANCH   1  12
ATOM     12  C   UNL     1     -12.278 -42.150  32.827  0.00  0.00    +0.251 C 
ATOM     13  S   UNL     1     -11.400 -41.531  34.057  0.00  0.00    +0.007 S 
BRANCH  12  14
ATOM     14  O   UNL     1     -13.457 -41.498  32.475  0.00  0.00    -0.388 OA
BRANCH  14  15
ATOM     15  S   UNL     1     -14.649 -41.258  33.699  0.00  0.00    +0.128 S 
ATOM     16  O   UNL     1     -15.985 -40.977  32.995  0.00  0.00    -0.124 OA
ATOM     17  H   UNL     1     -14.305 -40.200  34.481  0.00  0.00    +0.168 HD
ENDBRANCH  14  15
ENDBRANCH  12  14
ENDBRANCH   1  12
BRANCH   1  18
ATOM     18  C   UNL     1     -12.770 -44.397  32.015  0.00  0.00    +0.189 C 
BRANCH  18  19
ATOM     19  C   UNL     1     -13.253 -44.694  30.682  0.00  0.00    +0.283 C 
ATOM     20  N   UNL     1     -14.344 -44.162  30.250  0.00  0.00    -0.048 NA
BRANCH  20  21
ATOM     21  O   UNL     1     -15.080 -43.292  31.053  0.00  0.00    -0.407 OA
ATOM     22  H   UNL     1     -14.655 -42.573  31.477  0.00  0.00    +0.328 HD
ENDBRANCH  20  21
BRANCH  19  23
ATOM     23  O   UNL     1     -12.581 -45.540  29.837  0.00  0.00    -0.356 OA
BRANCH  23  24
ATOM     24  N   UNL     1     -12.070 -45.102  28.664  0.00  0.00    +0.006 NA
ATOM     25  I   UNL     1     -10.179 -45.978  28.447  0.00  0.00    +0.089 I 
BRANCH  24  26
ATOM     26  N   UNL     1     -12.845 -45.445  27.546  0.00  0.00    -0.199 N 
ATOM     27  C   UNL     1     -13.537 -44.465  26.774  0.00  0.00    +0.317 C 
ATOM     28  O   UNL     1     -13.419 -43.267  27.143  0.00  0.00    -0.264 OA
ATOM     29  H   UNL     1     -12.915 -46.392  27.286  0.00  0.00    +0.174 HD
ENDBRANCH  24  26
ENDBRANCH  23  24
ENDBRANCH  19  23
ENDBRANCH  18  19
ENDBRANCH   1  18
TORSDOF 10
ENDMDL
