MODEL 1
REMARK VINA RESULT:     8.718      0.000      0.000
REMARK INTER + INTRA:          10.258
REMARK INTER:                  10.502
REMARK INTRA:                  -0.244
REMARK UNBOUND:                -0.244
REMARK  Name = =
REMARK  4 active torsions:
REMARK  status: ('A' for Active; 'I' for Inactive)
REMARK    1  A    between atoms: C_1  and  C_15
REMARK    2  A    between atoms: C_2  and  S_7
REMARK    3  A    between atoms: C_16  and  C_20
REMARK    4  A    between atoms: C_18  and  S_26
REMARK                            x       y       z     vdW  Elec       q    Type
REMARK                         _______ _______ _______ _____ _____    ______ ____
ROOT
ATOM      1  C   UNL     1      55.661 162.681  42.450  0.00  0.00    +0.021 C 
ATOM      2  C   UNL     1      55.126 163.805  41.870  0.00  0.00    +0.009 C 
ATOM      3  C   UNL     1      55.905 164.959  41.897  0.00  0.00    +0.005 C 
ATOM      4  C   UNL     1      57.149 165.036  42.456  0.00  0.00    +0.000 C 
ATOM      5  C   UNL     1      57.668 163.895  43.035  0.00  0.00    +0.000 C 
ATOM      6  C   UNL     1      56.934 162.728  43.034  0.00  0.00    +0.002 C 
ENDROOT
BRANCH   2   7
ATOM      7  S   UNL     1      53.539 163.765  41.136  0.00  0.00    -0.188 S 
ATOM      8  C   UNL     1      53.357 164.836  39.641  0.00  0.00    +0.069 C 
ATOM      9  C   UNL     1      53.479 166.206  40.220  0.00  0.00    -0.000 C 
ATOM     10  C   UNL     1      52.675 166.528  41.225  0.00  0.00    +0.058 C 
ATOM     11  N   UNL     1      51.725 165.602  41.743  0.00  0.00    -0.301 N 
ATOM     12  C   UNL     1      52.177 164.223  42.027  0.00  0.00    +0.108 C 
ATOM     13  C   UNL     1      50.805 163.814  41.538  0.00  0.00    +0.051 C 
ATOM     14  C   UNL     1      50.431 165.147  42.211  0.00  0.00    +0.094 C 
ATOM     15  H   UNL     1      53.535 162.422  40.924  0.00  0.00    +0.090 HD
ENDBRANCH   2   7
BRANCH   1  16
ATOM     16  C   UNL     1      54.888 161.455  42.451  0.00  0.00    +0.076 A 
ATOM     17  C   UNL     1      55.358 160.230  42.037  0.00  0.00    +0.099 A 
ATOM     18  N   UNL     1      54.366 159.330  42.171  0.00  0.00    -0.222 NA
ATOM     19  C   UNL     1      53.271 159.965  42.665  0.00  0.00    +0.164 A 
ATOM     20  N   UNL     1      53.622 161.249  42.822  0.00  0.00    -0.333 N 
ATOM     21  H   UNL     1      53.023 161.950  43.167  0.00  0.00    +0.168 HD
BRANCH  17  22
ATOM     22  C   UNL     1      56.691 159.864  41.518  0.00  0.00    +0.019 C 
ATOM     23  C   UNL     1      57.512 159.006  42.212  0.00  0.00    +0.002 C 
ATOM     24  C   UNL     1      58.766 158.653  41.735  0.00  0.00    +0.000 C 
ATOM     25  C   UNL     1      59.220 159.166  40.540  0.00  0.00    +0.000 C 
ATOM     26  C   UNL     1      58.384 160.019  39.866  0.00  0.00    +0.000 C 
ATOM     27  C   UNL     1      57.144 160.375  40.324  0.00  0.00    +0.002 C 
ENDBRANCH  17  22
BRANCH  19  28
ATOM     28  S   UNL     1      51.689 159.193  43.020  0.00  0.00    -0.105 S 
ATOM     29  H   UNL     1      50.683 160.043  42.677  0.00  0.00    +0.110 HD
ENDBRANCH  19  28
ENDBRANCH   1  16
TORSDOF 4
ENDMDL
