MODEL 1
REMARK VINA RESULT:    -8.519      0.000      0.000
REMARK INTER + INTRA:          -9.840
REMARK INTER:                 -10.013
REMARK INTRA:                   0.172
REMARK UNBOUND:                 0.172
REMARK  Name = =
REMARK  3 active torsions:
REMARK  status: ('A' for Active; 'I' for Inactive)
REMARK    1  A    between atoms: C_1  and  N_17
REMARK    2  A    between atoms: C_1  and  C_37
REMARK    3  A    between atoms: C_9  and  N_40
REMARK                            x       y       z     vdW  Elec       q    Type
REMARK                         _______ _______ _______ _____ _____    ______ ____
ROOT
ATOM      1  C   UNL     1      60.120 161.554  40.127  0.00  0.00    +0.114 C 
ATOM      2  C   UNL     1      58.974 161.121  41.027  0.00  0.00    -0.006 C 
ATOM      3  C   UNL     1      59.111 160.311  42.118  0.00  0.00    -0.022 C 
ATOM      4  C   UNL     1      57.945 160.003  42.846  0.00  0.00    +0.036 C 
ATOM      5  C   UNL     1      56.702 160.473  42.516  0.00  0.00    +0.177 C 
ATOM      6  C   UNL     1      56.582 161.293  41.405  0.00  0.00    +0.177 C 
ATOM      7  C   UNL     1      57.705 161.609  40.677  0.00  0.00    +0.037 C 
ATOM      8  O   UNL     1      55.239 161.627  41.289  0.00  0.00    -0.427 OA
ATOM      9  C   UNL     1      54.462 160.695  42.055  0.00  0.00    +0.419 C 
ATOM     10  O   UNL     1      55.415 160.338  43.034  0.00  0.00    -0.427 OA
ATOM     11  C   UNL     1      60.411 159.741  42.588  0.00  0.00    +0.029 C 
ATOM     12  C   UNL     1      61.485 160.174  41.750  0.00  0.00    +0.038 C 
ATOM     13  C   UNL     1      61.383 161.384  40.908  0.00  0.00    +0.054 C 
ATOM     14  C   UNL     1      62.637 161.192  40.129  0.00  0.00    +0.144 C 
ATOM     15  O   UNL     1      62.528 159.879  39.697  0.00  0.00    -0.354 OA
ATOM     16  C   UNL     1      62.165 159.200  40.862  0.00  0.00    +0.143 C 
ENDROOT
BRANCH   1  17
ATOM     17  N   UNL     1      59.922 162.933  39.854  0.00  0.00    -0.251 NA
ATOM     18  C   UNL     1      60.647 163.567  38.808  0.00  0.00    +0.170 C 
ATOM     19  N   UNL     1      59.941 164.790  38.488  0.00  0.00    -0.279 N 
ATOM     20  C   UNL     1      60.323 165.550  37.371  0.00  0.00    +0.129 C 
ATOM     21  N   UNL     1      60.215 165.023  36.191  0.00  0.00    -0.246 NA
ATOM     22  C   UNL     1      60.511 165.521  34.875  0.00  0.00    +0.212 C 
ATOM     23  C   UNL     1      60.098 166.903  34.622  0.00  0.00    +0.251 C 
ATOM     24  O   UNL     1      59.498 167.136  33.559  0.00  0.00    -0.273 OA
ATOM     25  N   UNL     1      60.301 168.057  35.464  0.00  0.00    -0.282 N 
ATOM     26  C   UNL     1      60.792 168.017  36.794  0.00  0.00    +0.053 C 
ATOM     27  C   UNL     1      60.805 166.890  37.628  0.00  0.00    +0.045 C 
ATOM     28  C   UNL     1      61.329 167.005  38.887  0.00  0.00    +0.004 C 
ATOM     29  C   UNL     1      61.833 168.217  39.324  0.00  0.00    +0.000 C 
ATOM     30  C   UNL     1      61.795 169.290  38.472  0.00  0.00    +0.001 C 
ATOM     31  C   UNL     1      61.285 169.235  37.200  0.00  0.00    +0.015 C 
ATOM     32  C   UNL     1      58.832 165.184  39.288  0.00  0.00    +0.095 C 
ATOM     33  C   UNL     1      59.098 165.009  40.738  0.00  0.00    +0.039 C 
ATOM     34  C   UNL     1      59.969 163.810  40.982  0.00  0.00    +0.076 C 
ATOM     35  H   UNL     1      60.083 168.940  35.086  0.00  0.00    +0.155 HD
ENDBRANCH   1  17
BRANCH   1  38
ATOM     36  N   UNL     1      58.517 160.414  37.360  0.00  0.00    -0.026 NA
ATOM     37  N   UNL     1      59.421 161.200  37.743  0.00  0.00    -0.127 NA
ATOM     38  C   UNL     1      60.004 160.717  38.916  0.00  0.00    +0.268 C 
ATOM     39  N   UNL     1      59.276 159.501  39.165  0.00  0.00    -0.127 NA
ATOM     40  N   UNL     1      58.435 159.357  38.254  0.00  0.00    -0.026 NA
ENDBRANCH   1  38
BRANCH   9  41
ATOM     41  N   UNL     1      53.287 161.318  42.574  0.00  0.00    -0.202 NA
ATOM     42  C   UNL     1      52.860 162.426  41.760  0.00  0.00    +0.080 C 
ATOM     43  C   UNL     1      51.459 161.851  41.817  0.00  0.00    +0.035 C 
ATOM     44  C   UNL     1      52.090 160.557  42.281  0.00  0.00    +0.080 C 
ENDBRANCH   9  41
TORSDOF 3
ENDMDL
