REMARK  Name = =
REMARK  4 active torsions:
REMARK  status: ('A' for Active; 'I' for Inactive)
REMARK    1  A    between atoms: C_1  and  C_15
REMARK    2  A    between atoms: C_2  and  S_7
REMARK    3  A    between atoms: C_16  and  C_20
REMARK    4  A    between atoms: C_18  and  S_26
REMARK                            x       y       z     vdW  Elec       q    Type
REMARK                         _______ _______ _______ _____ _____    ______ ____
ROOT
ATOM      1  C   UNL     1      53.025 154.189  28.508  0.00  0.00    +0.021 C 
ATOM      2  C   UNL     1      53.562 153.999  27.259  0.00  0.00    +0.009 C 
ATOM      3  C   UNL     1      54.627 153.106  27.161  0.00  0.00    +0.005 C 
ATOM      4  C   UNL     1      55.157 152.420  28.217  0.00  0.00    +0.000 C 
ATOM      5  C   UNL     1      54.602 152.627  29.464  0.00  0.00    +0.000 C 
ATOM      6  C   UNL     1      53.547 153.502  29.612  0.00  0.00    +0.002 C 
ENDROOT
BRANCH   2   7
ATOM      7  S   UNL     1      52.923 154.847  25.870  0.00  0.00    -0.188 S 
ATOM      8  C   UNL     1      52.735 153.808  24.354  0.00  0.00    +0.069 C 
ATOM      9  C   UNL     1      54.154 153.508  24.002  0.00  0.00    -0.000 C 
ATOM     10  C   UNL     1      54.988 154.530  23.865  0.00  0.00    +0.058 C 
ATOM     11  N   UNL     1      54.553 155.874  24.048  0.00  0.00    -0.301 N 
ATOM     12  C   UNL     1      53.739 156.188  25.241  0.00  0.00    +0.108 C 
ATOM     13  C   UNL     1      52.999 157.137  24.324  0.00  0.00    +0.051 C 
ATOM     14  C   UNL     1      54.412 157.281  23.728  0.00  0.00    +0.094 C 
ATOM     15  H   UNL     1      51.774 155.239  26.483  0.00  0.00    +0.090 HD
ENDBRANCH   2   7
BRANCH   1  16
ATOM     16  C   UNL     1      51.917 155.111  28.664  0.00  0.00    +0.076 A 
ATOM     17  C   UNL     1      52.034 156.481  28.694  0.00  0.00    +0.099 A 
ATOM     18  N   UNL     1      50.806 157.006  28.860  0.00  0.00    -0.222 NA
ATOM     19  C   UNL     1      49.908 155.989  28.936  0.00  0.00    +0.164 A 
ATOM     20  N   UNL     1      50.615 154.856  28.814  0.00  0.00    -0.333 N 
ATOM     21  H   UNL     1      50.224 153.953  28.833  0.00  0.00    +0.168 HD
BRANCH  17  22
ATOM     22  C   UNL     1      53.243 157.322  28.579  0.00  0.00    +0.019 C 
ATOM     23  C   UNL     1      53.924 157.427  27.388  0.00  0.00    +0.002 C 
ATOM     24  C   UNL     1      55.060 158.214  27.267  0.00  0.00    +0.000 C 
ATOM     25  C   UNL     1      55.535 158.913  28.354  0.00  0.00    +0.000 C 
ATOM     26  C   UNL     1      54.840 158.793  29.529  0.00  0.00    +0.000 C 
ATOM     27  C   UNL     1      53.717 158.021  29.664  0.00  0.00    +0.002 C 
ENDBRANCH  17  22
BRANCH  19  28
ATOM     28  S   UNL     1      48.136 156.175  29.156  0.00  0.00    -0.105 S 
ATOM     29  H   UNL     1      47.825 157.497  29.236  0.00  0.00    +0.110 HD
ENDBRANCH  19  28
ENDBRANCH   1  16
TORSDOF 4
