REMARK  Name = =
REMARK  1 active torsions:
REMARK  status: ('A' for Active; 'I' for Inactive)
REMARK    1  A    between atoms: N_1  and  C_26
REMARK                            x       y       z     vdW  Elec       q    Type
REMARK                         _______ _______ _______ _____ _____    ______ ____
ROOT
ATOM      1  N   UNL     1      -8.357  -7.376  21.297  0.00  0.00    -0.248 N 
ATOM      2  C   UNL     1      -8.671  -5.961  21.368  0.00  0.00    +0.183 C 
ATOM      3  C   UNL     1      -7.509  -5.166  21.851  0.00  0.00    +0.247 C 
ATOM      4  O   UNL     1      -6.559  -5.836  22.378  0.00  0.00    -0.273 OA
ATOM      5  N   UNL     1      -7.435  -3.756  21.743  0.00  0.00    -0.272 N 
ATOM      6  C   UNL     1      -8.537  -2.848  21.982  0.00  0.00    +0.152 C 
ATOM      7  C   UNL     1      -7.955  -1.492  22.204  0.00  0.00    +0.031 C 
ATOM      8  C   UNL     1      -6.463  -1.791  22.392  0.00  0.00    +0.024 C 
ATOM      9  C   UNL     1      -6.306  -2.919  21.392  0.00  0.00    +0.094 C 
ATOM     10  C   UNL     1      -9.482  -2.780  20.838  0.00  0.00    +0.241 C 
ATOM     11  O   UNL     1      -9.047  -2.559  19.695  0.00  0.00    -0.273 OA
ATOM     12  N   UNL     1     -10.881  -2.967  21.048  0.00  0.00    -0.295 N 
ATOM     13  C   UNL     1     -11.410  -2.982  22.393  0.00  0.00    +0.176 C 
ATOM     14  C   UNL     1     -12.662  -3.746  22.473  0.00  0.00    +0.243 C 
ATOM     15  O   UNL     1     -13.408  -3.734  21.438  0.00  0.00    -0.273 OA
ATOM     16  N   UNL     1     -13.096  -4.479  23.588  0.00  0.00    -0.294 N 
ATOM     17  C   UNL     1     -12.218  -5.233  24.455  0.00  0.00    +0.201 C 
ATOM     18  C   UNL     1     -12.529  -6.679  24.353  0.00  0.00    +0.337 C 
ATOM     19  O   UNL     1     -13.709  -6.988  23.980  0.00  0.00    -0.248 OA
ATOM     20  O   UNL     1     -11.621  -7.669  24.634  0.00  0.00    -0.447 OA
ATOM     21  C   UNL     1     -10.270  -7.667  24.182  0.00  0.00    +0.218 C 
ATOM     22  C   UNL     1     -10.281  -8.222  22.782  0.00  0.00    +0.133 C 
ATOM     23  C   UNL     1      -8.940  -8.334  22.181  0.00  0.00    +0.234 C 
ATOM     24  O   UNL     1      -8.238  -9.344  22.454  0.00  0.00    -0.274 OA
ATOM     25  H   UNL     1     -11.484  -3.085  20.279  0.00  0.00    +0.150 HD
ATOM     26  H   UNL     1     -14.059  -4.480  23.793  0.00  0.00    +0.150 HD
ENDROOT
BRANCH   1  28
ATOM     27  C   UNL     1      -7.827  -8.150  19.094  0.00  0.00    +0.017 C 
ATOM     28  C   UNL     1      -7.427  -7.786  20.296  0.00  0.00    +0.068 C 
ENDBRANCH   1  28
TORSDOF 1
