REMARK  Name = =
REMARK  2 active torsions:
REMARK  status: ('A' for Active; 'I' for Inactive)
REMARK    1  A    between atoms: N_1  and  C_26
REMARK    2  A    between atoms: C_25  and  N_27
REMARK                            x       y       z     vdW  Elec       q    Type
REMARK                         _______ _______ _______ _____ _____    ______ ____
ROOT
ATOM      1  N   UNL     1      -7.162  -6.405  20.894  0.00  0.00    -0.247 N 
ATOM      2  C   UNL     1      -8.050  -5.273  21.062  0.00  0.00    +0.183 C 
ATOM      3  C   UNL     1      -7.357  -4.101  21.656  0.00  0.00    +0.247 C 
ATOM      4  O   UNL     1      -6.105  -4.046  21.548  0.00  0.00    -0.273 OA
ATOM      5  N   UNL     1      -8.084  -3.074  22.326  0.00  0.00    -0.272 N 
ATOM      6  C   UNL     1      -9.263  -3.384  23.079  0.00  0.00    +0.152 C 
ATOM      7  C   UNL     1      -9.400  -2.294  24.090  0.00  0.00    +0.031 C 
ATOM      8  C   UNL     1      -8.366  -1.251  23.733  0.00  0.00    +0.024 C 
ATOM      9  C   UNL     1      -7.825  -1.627  22.392  0.00  0.00    +0.094 C 
ATOM     10  C   UNL     1     -10.461  -3.498  22.199  0.00  0.00    +0.241 C 
ATOM     11  O   UNL     1     -10.318  -3.150  20.978  0.00  0.00    -0.273 OA
ATOM     12  N   UNL     1     -11.693  -3.970  22.702  0.00  0.00    -0.295 N 
ATOM     13  C   UNL     1     -11.761  -4.622  23.964  0.00  0.00    +0.176 C 
ATOM     14  C   UNL     1     -12.784  -5.699  24.031  0.00  0.00    +0.243 C 
ATOM     15  O   UNL     1     -13.890  -5.430  23.486  0.00  0.00    -0.273 OA
ATOM     16  N   UNL     1     -12.605  -6.957  24.640  0.00  0.00    -0.294 N 
ATOM     17  C   UNL     1     -11.352  -7.699  24.598  0.00  0.00    +0.201 C 
ATOM     18  C   UNL     1     -10.777  -7.771  23.255  0.00  0.00    +0.337 C 
ATOM     19  O   UNL     1     -11.532  -7.768  22.256  0.00  0.00    -0.248 OA
ATOM     20  O   UNL     1      -9.418  -7.842  23.052  0.00  0.00    -0.447 OA
ATOM     21  C   UNL     1      -8.445  -7.177  23.818  0.00  0.00    +0.218 C 
ATOM     22  C   UNL     1      -7.084  -7.431  23.244  0.00  0.00    +0.133 C 
ATOM     23  C   UNL     1      -7.063  -7.511  21.776  0.00  0.00    +0.234 C 
ATOM     24  O   UNL     1      -6.948  -8.651  21.246  0.00  0.00    -0.274 OA
ATOM     25  H   UNL     1     -12.514  -3.846  22.173  0.00  0.00    +0.150 HD
ATOM     26  H   UNL     1     -13.367  -7.356  25.119  0.00  0.00    +0.150 HD
ENDROOT
BRANCH   1  28
ATOM     27  C   UNL     1      -5.105  -6.718  19.676  0.00  0.00    +0.084 C 
ATOM     28  C   UNL     1      -6.347  -6.335  19.719  0.00  0.00    +0.084 C 
BRANCH  27  29
ATOM     29  N   UNL     1      -4.375  -6.613  18.468  0.00  0.00    -0.247 N 
ATOM     30  C   UNL     1      -3.198  -7.399  18.241  0.00  0.00    +0.307 C 
ATOM     31  O   UNL     1      -2.837  -8.183  19.145  0.00  0.00    -0.265 OA
ATOM     32  C   UNL     1      -4.840  -5.685  17.451  0.00  0.00    +0.121 C 
ENDBRANCH  27  29
ENDBRANCH   1  28
TORSDOF 2
