MODEL 1
REMARK VINA RESULT:    -6.148      0.000      0.000
REMARK INTER + INTRA:          -8.809
REMARK INTER:                  -7.945
REMARK INTRA:                  -0.865
REMARK UNBOUND:                -0.865
REMARK  Name = =
REMARK  6 active torsions:
REMARK  status: ('A' for Active; 'I' for Inactive)
REMARK    1  A    between atoms: C_1  and  C_16
REMARK    2  A    between atoms: C_1  and  C_29
REMARK    3  A    between atoms: N_15  and  C_22
REMARK    4  A    between atoms: C_21  and  S_27
REMARK    5  A    between atoms: C_24  and  O_28
REMARK    6  A    between atoms: C_29  and  N_34
REMARK                            x       y       z     vdW  Elec       q    Type
REMARK                         _______ _______ _______ _____ _____    ______ ____
ROOT
ATOM      1  C   UNL     1      60.298 145.549  40.045  0.00  0.00    +0.191 C 
ATOM      2  O   UNL     1      60.798 144.553  39.098  0.00  0.00    -0.329 OA
ATOM      3  C   UNL     1      62.157 144.881  39.028  0.00  0.00    +0.213 C 
ATOM      4  N   UNL     1      62.566 145.144  40.371  0.00  0.00    -0.245 N 
ATOM      5  C   UNL     1      63.942 145.122  40.741  0.00  0.00    +0.181 C 
ATOM      6  C   UNL     1      64.789 144.334  39.799  0.00  0.00    +0.246 C 
ATOM      7  O   UNL     1      66.033 144.404  39.905  0.00  0.00    -0.273 OA
ATOM      8  N   UNL     1      64.202 143.520  38.800  0.00  0.00    -0.276 N 
ATOM      9  C   UNL     1      62.871 143.803  38.306  0.00  0.00    +0.122 C 
ATOM     10  C   UNL     1      62.229 142.453  38.342  0.00  0.00    +0.026 C 
ATOM     11  C   UNL     1      63.368 141.538  37.899  0.00  0.00    +0.023 C 
ATOM     12  C   UNL     1      64.645 142.350  38.071  0.00  0.00    +0.094 C 
ATOM     13  C   UNL     1      61.355 145.395  41.098  0.00  0.00    +0.255 C 
ATOM     14  O   UNL     1      61.337 145.448  42.331  0.00  0.00    -0.272 OA
ENDROOT
BRANCH   1  16
ATOM     15  N   UNL     1      60.557 148.060  40.059  0.00  0.00    -0.257 N 
ATOM     16  C   UNL     1      60.533 146.811  39.370  0.00  0.00    +0.115 C 
ATOM     17  C   UNL     1      59.759 147.069  38.086  0.00  0.00    +0.033 C 
ATOM     18  C   UNL     1      58.849 148.218  38.404  0.00  0.00    +0.087 C 
ATOM     19  C   UNL     1      59.428 148.814  39.657  0.00  0.00    +0.229 C 
ATOM     20  O   UNL     1      58.888 149.830  40.160  0.00  0.00    -0.275 OA
BRANCH  15  22
ATOM     21  C   UNL     1      61.364 148.951  42.228  0.00  0.00    +0.035 C 
ATOM     22  C   UNL     1      61.552 148.526  40.941  0.00  0.00    +0.062 C 
ATOM     23  C   UNL     1      62.870 148.577  40.467  0.00  0.00    +0.052 C 
ATOM     24  C   UNL     1      63.903 149.014  41.221  0.00  0.00    +0.135 C 
ATOM     25  C   UNL     1      63.692 149.435  42.512  0.00  0.00    +0.037 C 
ATOM     26  C   UNL     1      62.422 149.410  43.034  0.00  0.00    +0.010 C 
BRANCH  21  27
ATOM     27  S   UNL     1      59.767 148.990  43.034  0.00  0.00    -0.140 S 
ATOM     28  H   UNL     1      59.165 147.776  42.908  0.00  0.00    +0.107 HD
ENDBRANCH  21  27
BRANCH  24  29
ATOM     29  O   UNL     1      65.180 149.024  40.655  0.00  0.00    -0.505 OA
ATOM     30  H   UNL     1      65.851 149.566  41.023  0.00  0.00    +0.292 HD
ENDBRANCH  24  29
ENDBRANCH  15  22
ENDBRANCH   1  16
BRANCH   1  31
ATOM     31  C   UNL     1      58.966 145.031  40.401  0.00  0.00    +0.078 C 
ATOM     32  C   UNL     1      59.346 143.766  41.300  0.00  0.00    +0.018 C 
ATOM     33  C   UNL     1      58.053 142.999  41.280  0.00  0.00    +0.001 C 
ATOM     34  C   UNL     1      57.727 142.975  39.824  0.00  0.00    +0.001 C 
ATOM     35  C   UNL     1      58.372 144.196  39.249  0.00  0.00    +0.018 C 
BRANCH  31  36
ATOM     36  N   UNL     1      58.069 145.814  41.091  0.00  0.00    -0.270 NA
ATOM     37  C   UNL     1      58.173 146.104  42.456  0.00  0.00    +0.094 C 
ATOM     38  C   UNL     1      56.790 146.514  43.006  0.00  0.00    +0.111 C 
ATOM     39  N   UNL     1      55.737 145.800  42.336  0.00  0.00    -0.270 N 
ATOM     40  C   UNL     1      55.626 145.938  40.900  0.00  0.00    +0.111 C 
ATOM     41  C   UNL     1      56.991 146.468  40.453  0.00  0.00    +0.094 C 
ATOM     42  C   UNL     1      54.831 144.986  43.024  0.00  0.00    +0.303 C 
ATOM     43  O   UNL     1      53.916 144.365  42.435  0.00  0.00    -0.265 OA
ENDBRANCH  31  36
ENDBRANCH   1  31
TORSDOF 6
ENDMDL
