MODEL 1
REMARK VINA RESULT:   -10.158      0.000      0.000
REMARK INTER + INTRA:         -16.504
REMARK INTER:                 -14.018
REMARK INTRA:                  -2.486
REMARK UNBOUND:                -2.486
REMARK  Name = =
REMARK  7 active torsions:
REMARK  status: ('A' for Active; 'I' for Inactive)
REMARK    1  A    between atoms: S_1  and  C_20
REMARK    2  A    between atoms: C_2  and  C_6
REMARK    3  A    between atoms: N_4  and  C_32
REMARK    4  A    between atoms: C_8  and  C_13
REMARK    5  A    between atoms: C_24  and  N_26
REMARK    6  A    between atoms: C_33  and  C_36
REMARK    7  A    between atoms: C_38  and  O_43
REMARK                            x       y       z     vdW  Elec       q    Type
REMARK                         _______ _______ _______ _____ _____    ______ ____
ROOT
ATOM      1  S   UNL     1      -2.069  -4.702  28.991  0.00  0.00    -0.152 S 
ATOM      2  C   UNL     1      -2.130  -6.134  30.114  0.00  0.00    +0.127 C 
ATOM      3  N   UNL     1      -2.999  -5.840  30.947  0.00  0.00    -0.177 NA
ATOM      4  N   UNL     1      -3.673  -4.672  30.903  0.00  0.00    -0.221 N 
ATOM      5  C   UNL     1      -3.390  -3.801  29.791  0.00  0.00    +0.157 C 
ATOM      6  H   UNL     1      -2.216  -4.955  27.662  0.00  0.00    +0.095 HD
ENDROOT
BRANCH   2   7
ATOM      7  C   UNL     1      -1.262  -7.335  29.940  0.00  0.00    +0.214 C 
ATOM      8  C   UNL     1      -0.802  -7.317  28.505  0.00  0.00    +0.051 C 
ATOM      9  C   UNL     1       0.536  -7.997  28.428  0.00  0.00    +0.019 C 
ATOM     10  C   UNL     1       1.540  -7.085  29.109  0.00  0.00    +0.110 C 
ATOM     11  C   UNL     1       1.105  -7.000  30.518  0.00  0.00    +0.317 C 
ATOM     12  O   UNL     1       1.915  -6.692  31.414  0.00  0.00    -0.250 OA
ATOM     13  O   UNL     1      -0.205  -7.263  30.840  0.00  0.00    -0.446 OA
BRANCH   9  14
ATOM     14  C   UNL     1       0.946  -8.408  27.062  0.00  0.00    +0.023 C 
ATOM     15  C   UNL     1       0.041  -9.488  26.551  0.00  0.00    +0.012 C 
ATOM     16  C   UNL     1       0.363 -10.828  27.182  0.00  0.00    +0.069 C 
ATOM     17  C   UNL     1       1.803 -11.106  27.052  0.00  0.00    +0.173 C 
ATOM     18  O   UNL     1       2.196 -12.321  26.958  0.00  0.00    -0.291 OA
ATOM     19  C   UNL     1       2.751 -10.020  27.032  0.00  0.00    +0.033 C 
ATOM     20  C   UNL     1       2.362  -8.768  27.037  0.00  0.00    -0.024 C 
ENDBRANCH   9  14
ENDBRANCH   2   7
BRANCH   1  21
ATOM     21  C   UNL     1      -0.518  -3.882  28.811  0.00  0.00    +0.013 C 
ATOM     22  C   UNL     1       0.281  -3.598  29.897  0.00  0.00    +0.005 C 
ATOM     23  C   UNL     1       1.471  -2.957  29.675  0.00  0.00    +0.002 C 
ATOM     24  C   UNL     1       1.853  -2.609  28.371  0.00  0.00    +0.015 C 
ATOM     25  C   UNL     1       1.075  -2.882  27.277  0.00  0.00    +0.050 C 
ATOM     26  C   UNL     1      -0.122  -3.527  27.524  0.00  0.00    +0.019 C 
BRANCH  25  27
ATOM     27  N   UNL     1       1.408  -2.569  25.938  0.00  0.00    -0.287 N 
ATOM     28  C   UNL     1       0.746  -1.511  25.186  0.00  0.00    +0.185 C 
ATOM     29  N   UNL     1       1.687  -0.944  24.210  0.00  0.00    -0.315 N 
ATOM     30  C   UNL     1       3.096  -1.191  24.396  0.00  0.00    +0.056 C 
ATOM     31  C   UNL     1       3.507  -2.342  24.901  0.00  0.00    +0.011 C 
ATOM     32  C   UNL     1       2.434  -3.313  25.243  0.00  0.00    +0.120 C 
ATOM     33  H   UNL     1       1.364  -0.409  23.449  0.00  0.00    +0.148 HD
ENDBRANCH  25  27
ENDBRANCH   1  21
BRANCH   4  34
ATOM     34  C   UNL     1      -4.672  -4.276  31.919  0.00  0.00    +0.124 C 
ATOM     35  C   UNL     1      -4.870  -2.765  31.974  0.00  0.00    +0.094 C 
ATOM     36  N   UNL     1      -4.590  -2.833  33.379  0.00  0.00    -0.294 NA
ATOM     37  C   UNL     1      -4.133  -4.214  33.305  0.00  0.00    +0.092 C 
ATOM     38  H   UNL     1      -5.417  -2.712  33.963  0.00  0.00    +0.123 HD
BRANCH  35  39
ATOM     39  C   UNL     1      -6.326  -2.466  31.732  0.00  0.00    +0.095 C 
ATOM     40  N   UNL     1      -6.644  -1.056  31.709  0.00  0.00    -0.246 N 
ATOM     41  C   UNL     1      -5.804   0.073  31.678  0.00  0.00    +0.402 C 
ATOM     42  O   UNL     1      -6.300   1.225  31.659  0.00  0.00    -0.226 OA
ATOM     43  C   UNL     1      -8.100  -1.016  31.723  0.00  0.00    +0.097 C 
ATOM     44  C   UNL     1      -8.433  -2.083  32.742  0.00  0.00    +0.023 C 
ATOM     45  C   UNL     1      -7.196  -2.944  32.877  0.00  0.00    +0.023 C 
BRANCH  41  46
ATOM     46  O   UNL     1      -4.417  -0.007  31.669  0.00  0.00    -0.466 OA
ATOM     47  H   UNL     1      -3.975  -0.394  30.940  0.00  0.00    +0.297 HD
ENDBRANCH  41  46
ENDBRANCH  35  39
ENDBRANCH   4  34
TORSDOF 7
ENDMDL
