REMARK  Name = =
REMARK  7 active torsions:
REMARK  status: ('A' for Active; 'I' for Inactive)
REMARK    1  A    between atoms: S_1  and  C_20
REMARK    2  A    between atoms: C_2  and  C_6
REMARK    3  A    between atoms: N_4  and  C_32
REMARK    4  A    between atoms: C_8  and  C_13
REMARK    5  A    between atoms: C_24  and  N_26
REMARK    6  A    between atoms: C_33  and  C_36
REMARK    7  A    between atoms: C_38  and  O_43
REMARK                            x       y       z     vdW  Elec       q    Type
REMARK                         _______ _______ _______ _____ _____    ______ ____
ROOT
ATOM      1  S   UNL     1       0.141 -10.458  23.852  0.00  0.00    -0.152 S 
ATOM      2  C   UNL     1       1.755  -9.649  23.614  0.00  0.00    +0.127 C 
ATOM      3  N   UNL     1       1.654  -9.065  22.526  0.00  0.00    -0.177 NA
ATOM      4  N   UNL     1       0.526  -9.109  21.787  0.00  0.00    -0.221 N 
ATOM      5  C   UNL     1      -0.596  -9.811  22.356  0.00  0.00    +0.157 C 
ATOM      6  H   UNL     1      -0.511 -10.201  25.018  0.00  0.00    +0.095 HD
ENDROOT
BRANCH   2   7
ATOM      7  C   UNL     1       2.864  -9.753  24.606  0.00  0.00    +0.214 C 
ATOM      8  C   UNL     1       3.786  -8.593  24.330  0.00  0.00    +0.051 C 
ATOM      9  C   UNL     1       4.468  -8.214  25.614  0.00  0.00    +0.019 C 
ATOM     10  C   UNL     1       3.415  -7.592  26.512  0.00  0.00    +0.110 C 
ATOM     11  C   UNL     1       2.432  -8.664  26.769  0.00  0.00    +0.317 C 
ATOM     12  O   UNL     1       1.696  -8.622  27.774  0.00  0.00    -0.250 OA
ATOM     13  O   UNL     1       2.329  -9.715  25.889  0.00  0.00    -0.446 OA
BRANCH   9  14
ATOM     14  C   UNL     1       5.676  -7.366  25.449  0.00  0.00    +0.023 C 
ATOM     15  C   UNL     1       6.828  -8.192  24.963  0.00  0.00    +0.012 C 
ATOM     16  C   UNL     1       7.420  -9.031  26.078  0.00  0.00    +0.069 C 
ATOM     17  C   UNL     1       7.711  -8.177  27.242  0.00  0.00    +0.173 C 
ATOM     18  O   UNL     1       8.686  -8.485  28.012  0.00  0.00    -0.291 OA
ATOM     19  C   UNL     1       6.903  -7.012  27.504  0.00  0.00    +0.033 C 
ATOM     20  C   UNL     1       5.959  -6.630  26.679  0.00  0.00    -0.024 C 
ENDBRANCH   9  14
ENDBRANCH   2   7
BRANCH   1  21
ATOM     21  C   UNL     1       0.138 -12.208  24.067  0.00  0.00    +0.013 C 
ATOM     22  C   UNL     1       0.024 -12.785  25.313  0.00  0.00    +0.005 C 
ATOM     23  C   UNL     1       0.030 -14.152  25.397  0.00  0.00    +0.002 C 
ATOM     24  C   UNL     1       0.148 -14.930  24.235  0.00  0.00    +0.015 C 
ATOM     25  C   UNL     1       0.262 -14.378  22.987  0.00  0.00    +0.050 C 
ATOM     26  C   UNL     1       0.255 -12.998  22.925  0.00  0.00    +0.019 C 
BRANCH  25  27
ATOM     27  N   UNL     1       0.371 -15.106  21.778  0.00  0.00    -0.287 N 
ATOM     28  C   UNL     1       0.742 -14.485  20.513  0.00  0.00    +0.185 C 
ATOM     29  N   UNL     1       1.453 -15.464  19.679  0.00  0.00    -0.315 N 
ATOM     30  C   UNL     1       1.996 -16.638  20.316  0.00  0.00    +0.056 C 
ATOM     31  C   UNL     1       1.364 -17.192  21.337  0.00  0.00    +0.011 C 
ATOM     32  C   UNL     1       0.100 -16.525  21.748  0.00  0.00    +0.120 C 
ATOM     33  H   UNL     1       1.556 -15.322  18.710  0.00  0.00    +0.148 HD
ENDBRANCH  25  27
ENDBRANCH   1  21
BRANCH   4  34
ATOM     34  C   UNL     1       0.403  -8.469  20.459  0.00  0.00    +0.124 C 
ATOM     35  C   UNL     1      -0.975  -7.854  20.241  0.00  0.00    +0.094 C 
ATOM     36  N   UNL     1      -1.068  -8.624  19.034  0.00  0.00    -0.294 NA
ATOM     37  C   UNL     1       0.108  -9.421  19.354  0.00  0.00    +0.092 C 
ATOM     38  H   UNL     1      -0.960  -8.065  18.188  0.00  0.00    +0.123 HD
BRANCH  35  39
ATOM     39  C   UNL     1      -0.800  -6.391  19.930  0.00  0.00    +0.095 C 
ATOM     40  N   UNL     1      -1.992  -5.598  20.129  0.00  0.00    -0.246 N 
ATOM     41  C   UNL     1      -3.216  -5.921  20.743  0.00  0.00    +0.402 C 
ATOM     42  O   UNL     1      -4.131  -5.065  20.810  0.00  0.00    -0.226 OA
ATOM     43  C   UNL     1      -1.668  -4.308  19.535  0.00  0.00    +0.097 C 
ATOM     44  C   UNL     1      -0.960  -4.718  18.263  0.00  0.00    +0.023 C 
ATOM     45  C   UNL     1      -0.534  -6.157  18.457  0.00  0.00    +0.023 C 
BRANCH  41  46
ATOM     46  O   UNL     1      -3.488  -7.166  21.296  0.00  0.00    -0.466 OA
ATOM     47  H   UNL     1      -2.839  -7.841  21.272  0.00  0.00    +0.297 HD
ENDBRANCH  41  46
ENDBRANCH  35  39
ENDBRANCH   4  34
TORSDOF 7
