REMARK  Name = =
REMARK  0 active torsions:
REMARK  status: ('A' for Active; 'I' for Inactive)
REMARK                            x       y       z     vdW  Elec       q    Type
REMARK                         _______ _______ _______ _____ _____    ______ ____
ROOT
ATOM      1  C   UNL     1      -4.117  -3.316  31.458  0.00  0.00    +0.169 C 
ATOM      2  O   UNL     1      -3.312  -2.580  32.346  0.00  0.00    -0.379 OA
ATOM      3  H   UNL     1      -3.864  -1.953  32.839  0.00  0.00    +0.211 HD
ENDROOT
TORSDOF 0
