REMARK  Name = =
REMARK  2 active torsions:
REMARK  status: ('A' for Active; 'I' for Inactive)
REMARK    1  A    between atoms: C_1  and  C_9
REMARK    2  A    between atoms: C_9  and  O_10
REMARK                            x       y       z     vdW  Elec       q    Type
REMARK                         _______ _______ _______ _____ _____    ______ ____
ROOT
ATOM      1  C   UNL     1      -2.857  -3.104  30.077  0.00  0.00    +0.086 C 
ATOM      2  N   UNL     1      -1.524  -3.150  30.614  0.00  0.00    -0.220 NA
ATOM      3  C   UNL     1      -0.741  -3.393  29.392  0.00  0.00    +0.073 C 
ATOM      4  C   UNL     1      -1.517  -4.467  28.635  0.00  0.00    +0.019 C 
ATOM      5  C   UNL     1      -2.908  -4.285  29.170  0.00  0.00    +0.020 C 
ATOM      6  C   UNL     1      -0.729  -2.168  28.513  0.00  0.00    +0.017 C 
ATOM      7  C   UNL     1      -1.828  -1.213  28.781  0.00  0.00    +0.003 C 
ATOM      8  C   UNL     1      -3.051  -1.787  29.395  0.00  0.00    +0.019 C 
ENDROOT
BRANCH   1   9
ATOM      9  C   UNL     1      -3.922  -3.256  31.129  0.00  0.00    +0.153 C 
BRANCH   9  10
ATOM     10  O   UNL     1      -3.888  -2.228  32.078  0.00  0.00    -0.381 OA
ATOM     11  H   UNL     1      -4.590  -2.369  32.732  0.00  0.00    +0.210 HD
ENDBRANCH   9  10
ENDBRANCH   1   9
TORSDOF 2
