REMARK  Name = =
REMARK  7 active torsions:
REMARK  status: ('A' for Active; 'I' for Inactive)
REMARK    1  A    between atoms: C_4  and  C_5
REMARK    2  A    between atoms: C_4  and  O_13
REMARK    3  A    between atoms: P_15  and  O_17
REMARK    4  A    between atoms: P_15  and  O_18
REMARK    5  A    between atoms: O_19  and  P_20
REMARK    6  A    between atoms: P_20  and  O_22
REMARK    7  A    between atoms: P_20  and  O_23
REMARK                            x       y       z     vdW  Elec       q    Type
REMARK                         _______ _______ _______ _____ _____    ______ ____
ROOT
ATOM      1  P   UNL     1      -4.255  -2.640  31.268  0.00  0.00    +0.000 P 
ENDROOT
TORSDOF 0
REMARK  Name = =
REMARK  7 active torsions:
REMARK  status: ('A' for Active; 'I' for Inactive)
REMARK    1  A    between atoms: C_4  and  C_5
REMARK    2  A    between atoms: C_4  and  O_13
REMARK    3  A    between atoms: P_15  and  O_17
REMARK    4  A    between atoms: P_15  and  O_18
REMARK    5  A    between atoms: O_19  and  P_20
REMARK    6  A    between atoms: P_20  and  O_22
REMARK    7  A    between atoms: P_20  and  O_23
REMARK                            x       y       z     vdW  Elec       q    Type
REMARK                         _______ _______ _______ _____ _____    ______ ____
ROOT
ATOM      1  O   HOH     1      -4.035  -1.859  32.514  0.00  0.00    +0.000 OA
ENDROOT
TORSDOF 0
REMARK  Name = =
REMARK  7 active torsions:
REMARK  status: ('A' for Active; 'I' for Inactive)
REMARK    1  A    between atoms: C_4  and  C_5
REMARK    2  A    between atoms: C_4  and  O_13
REMARK    3  A    between atoms: P_15  and  O_17
REMARK    4  A    between atoms: P_15  and  O_18
REMARK    5  A    between atoms: O_19  and  P_20
REMARK    6  A    between atoms: P_20  and  O_22
REMARK    7  A    between atoms: P_20  and  O_23
REMARK                            x       y       z     vdW  Elec       q    Type
REMARK                         _______ _______ _______ _____ _____    ______ ____
ROOT
ATOM      1  O   HOH     1      -5.137  -3.200  29.916  0.00  0.00    -0.253 OA
ATOM      2  H   HOH     0      -4.167  -3.200  29.916  0.00  0.00    +0.253 HD
ENDROOT
TORSDOF 0
REMARK  Name = =
REMARK  7 active torsions:
REMARK  status: ('A' for Active; 'I' for Inactive)
REMARK    1  A    between atoms: C_4  and  C_5
REMARK    2  A    between atoms: C_4  and  O_13
REMARK    3  A    between atoms: P_15  and  O_17
REMARK    4  A    between atoms: P_15  and  O_18
REMARK    5  A    between atoms: O_19  and  P_20
REMARK    6  A    between atoms: P_20  and  O_22
REMARK    7  A    between atoms: P_20  and  O_23
REMARK                            x       y       z     vdW  Elec       q    Type
REMARK                         _______ _______ _______ _____ _____    ______ ____
ROOT
ATOM      1  C   UNL     1      -2.005  -2.924  29.671  0.00  0.00    +0.086 C 
ATOM      2  N   UNL     1      -0.553  -2.790  29.845  0.00  0.00    -0.220 NA
ATOM      3  C   UNL     1      -0.066  -3.246  28.545  0.00  0.00    +0.073 C 
ATOM      4  C   UNL     1      -0.812  -4.576  28.453  0.00  0.00    +0.019 C 
ATOM      5  C   UNL     1      -2.227  -4.095  28.775  0.00  0.00    +0.020 C 
ATOM      6  C   UNL     1      -0.595  -2.282  27.515  0.00  0.00    +0.017 C 
ATOM      7  C   UNL     1      -1.384  -1.151  28.123  0.00  0.00    +0.003 C 
ATOM      8  C   UNL     1      -2.478  -1.644  29.046  0.00  0.00    +0.019 C 
ENDROOT
BRANCH   1   9
ATOM      9  C   UNL     1      -2.565  -3.127  31.071  0.00  0.00    +0.153 C 
BRANCH   9  10
ATOM     10  O   UNL     1      -2.321  -4.500  31.343  0.00  0.00    -0.381 OA
ATOM     11  H   UNL     1      -2.652  -4.718  32.229  0.00  0.00    +0.210 HD
ENDBRANCH   9  10
ENDBRANCH   1   9
TORSDOF 2
REMARK  Name = =
REMARK  7 active torsions:
REMARK  status: ('A' for Active; 'I' for Inactive)
REMARK    1  A    between atoms: C_4  and  C_5
REMARK    2  A    between atoms: C_4  and  O_13
REMARK    3  A    between atoms: P_15  and  O_17
REMARK    4  A    between atoms: P_15  and  O_18
REMARK    5  A    between atoms: O_19  and  P_20
REMARK    6  A    between atoms: P_20  and  O_22
REMARK    7  A    between atoms: P_20  and  O_23
REMARK                            x       y       z     vdW  Elec       q    Type
REMARK                         _______ _______ _______ _____ _____    ______ ____
ROOT
ATOM      1  O   UNL     1      -4.850  -4.203  31.650  0.00  0.00    -0.225 OA
ATOM      2  P   UNL     1      -4.854  -4.263  33.307  0.00  0.00    +0.500 P 
ATOM      3  O   UNL     1      -3.650  -3.704  33.981  0.00  0.00    -0.116 OA
ENDROOT
BRANCH   2   4
ATOM      4  O   UNL     1      -6.238  -3.526  33.961  0.00  0.00    -0.301 OA
ATOM      5  H   UNL     1      -7.029  -3.883  33.529  0.00  0.00    +0.222 HD
ENDBRANCH   2   4
BRANCH   2   6
ATOM      6  O   UNL     1      -4.944  -5.920  33.742  0.00  0.00    -0.301 OA
ATOM      7  H   UNL     1      -5.719  -6.323  33.321  0.00  0.00    +0.222 HD
ENDBRANCH   2   6
TORSDOF 2
REMARK  Name = =
REMARK  7 active torsions:
REMARK  status: ('A' for Active; 'I' for Inactive)
REMARK    1  A    between atoms: C_4  and  C_5
REMARK    2  A    between atoms: C_4  and  O_13
REMARK    3  A    between atoms: P_15  and  O_17
REMARK    4  A    between atoms: P_15  and  O_18
REMARK    5  A    between atoms: O_19  and  P_20
REMARK    6  A    between atoms: P_20  and  O_22
REMARK    7  A    between atoms: P_20  and  O_23
REMARK                            x       y       z     vdW  Elec       q    Type
REMARK                         _______ _______ _______ _____ _____    ______ ____
ROOT
ATOM      1  P   UNL     1      -5.816  -0.286  31.455  0.00  0.00    +0.470 P 
ATOM      2  O   UNL     1      -5.621   0.452  32.784  0.00  0.00    -0.228 OA
ENDROOT
BRANCH   1   3
ATOM      3  O   UNL     1      -4.345  -0.987  31.073  0.00  0.00    -0.303 OA
ATOM      4  H   UNL     1      -4.135  -1.673  31.725  0.00  0.00    +0.222 HD
ENDBRANCH   1   3
BRANCH   1   5
ATOM      5  O   UNL     1      -6.229   0.928  30.335  0.00  0.00    -0.303 OA
ATOM      6  H   UNL     1      -6.369   0.529  29.462  0.00  0.00    +0.222 HD
ENDBRANCH   1   5
BRANCH   1   7
ATOM      7  O   UNL     1      -7.066  -1.371  31.678  0.00  0.00    -0.303 OA
ATOM      8  H   UNL     1      -6.797  -2.047  32.320  0.00  0.00    +0.222 HD
ENDBRANCH   1   7
TORSDOF 3
