REMARK  Name = =
REMARK  11 active torsions:
REMARK  status: ('A' for Active; 'I' for Inactive)
REMARK    1  A    between atoms: O_2  and  O_17
REMARK    2  A    between atoms: C_4  and  C_5
REMARK    3  A    between atoms: C_4  and  O_13
REMARK    4  A    between atoms: C_4  and  O_14
REMARK    5  A    between atoms: O_14  and  C_15
REMARK    6  A    between atoms: O_17  and  P_18
REMARK    7  A    between atoms: P_18  and  O_20
REMARK    8  A    between atoms: P_18  and  O_21
REMARK    9  A    between atoms: O_22  and  P_23
REMARK   10  A    between atoms: P_23  and  O_25
REMARK   11  A    between atoms: P_23  and  O_26
REMARK                            x       y       z     vdW  Elec       q    Type
REMARK                         _______ _______ _______ _____ _____    ______ ____
ROOT
ATOM      1  P   UNL     1      -4.212  -5.998  33.267  0.00  0.00    +0.499 P 
ATOM      2  O   UNL     1      -4.682  -7.460  33.398  0.00  0.00    -0.225 OA
ENDROOT
BRANCH   1   3
ATOM      3  O   UNL     1      -2.604  -5.886  33.805  0.00  0.00    -0.301 OA
ATOM      4  H   UNL     1      -2.033  -6.423  33.233  0.00  0.00    +0.222 HD
ENDBRANCH   1   3
BRANCH   1   5
ATOM      5  O   UNL     1      -5.225  -5.090  34.224  0.00  0.00    -0.301 OA
ATOM      6  H   UNL     1      -6.135  -5.170  33.898  0.00  0.00    +0.222 HD
ENDBRANCH   1   5
BRANCH   1   7
ATOM      7  O   UNL     1      -4.231  -5.592  31.635  0.00  0.00    -0.122 OA
BRANCH   7   9
ATOM      8  P   UNL     1      -3.767  -4.018  31.479  0.00  0.00    +0.195 P 
ATOM      9  O   UNL     1      -2.774  -5.059  31.292  0.00  0.00    -0.189 OA
ENDBRANCH   7   9
ENDBRANCH   1   7
TORSDOF 4
REMARK  Name = =
REMARK  11 active torsions:
REMARK  status: ('A' for Active; 'I' for Inactive)
REMARK    1  A    between atoms: O_2  and  O_17
REMARK    2  A    between atoms: C_4  and  C_5
REMARK    3  A    between atoms: C_4  and  O_13
REMARK    4  A    between atoms: C_4  and  O_14
REMARK    5  A    between atoms: O_14  and  C_15
REMARK    6  A    between atoms: O_17  and  P_18
REMARK    7  A    between atoms: P_18  and  O_20
REMARK    8  A    between atoms: P_18  and  O_21
REMARK    9  A    between atoms: O_22  and  P_23
REMARK   10  A    between atoms: P_23  and  O_25
REMARK   11  A    between atoms: P_23  and  O_26
REMARK                            x       y       z     vdW  Elec       q    Type
REMARK                         _______ _______ _______ _____ _____    ______ ____
ROOT
ATOM      1  O   HOH     1      -3.459  -3.315  32.925  0.00  0.00    -0.253 OA
ATOM      2  H   HOH     0      -2.489  -3.315  32.925  0.00  0.00    +0.253 HD
ENDROOT
TORSDOF 0
REMARK  Name = =
REMARK  11 active torsions:
REMARK  status: ('A' for Active; 'I' for Inactive)
REMARK    1  A    between atoms: O_2  and  O_17
REMARK    2  A    between atoms: C_4  and  C_5
REMARK    3  A    between atoms: C_4  and  O_13
REMARK    4  A    between atoms: C_4  and  O_14
REMARK    5  A    between atoms: O_14  and  C_15
REMARK    6  A    between atoms: O_17  and  P_18
REMARK    7  A    between atoms: P_18  and  O_20
REMARK    8  A    between atoms: P_18  and  O_21
REMARK    9  A    between atoms: O_22  and  P_23
REMARK   10  A    between atoms: P_23  and  O_25
REMARK   11  A    between atoms: P_23  and  O_26
REMARK                            x       y       z     vdW  Elec       q    Type
REMARK                         _______ _______ _______ _____ _____    ______ ____
ROOT
ATOM      1  C   UNL     1      -1.967  -3.485  29.480  0.00  0.00    +0.123 C 
ATOM      2  N   UNL     1      -2.040  -4.876  29.137  0.00  0.00    -0.216 NA
ATOM      3  C   UNL     1      -1.004  -5.013  28.131  0.00  0.00    +0.073 C 
ATOM      4  C   UNL     1      -1.093  -3.759  27.278  0.00  0.00    +0.019 C 
ATOM      5  C   UNL     1      -1.885  -2.807  28.135  0.00  0.00    +0.024 C 
ATOM      6  C   UNL     1       0.330  -4.941  28.858  0.00  0.00    +0.017 C 
ATOM      7  C   UNL     1       0.149  -4.399  30.258  0.00  0.00    +0.003 C 
ATOM      8  C   UNL     1      -0.718  -3.156  30.237  0.00  0.00    +0.022 C 
ENDROOT
BRANCH   1   9
ATOM      9  C   UNL     1      -3.228  -2.981  30.159  0.00  0.00    +0.302 C 
BRANCH   9  10
ATOM     10  O   UNL     1      -4.229  -3.012  29.201  0.00  0.00    -0.349 OA
ATOM     11  H   UNL     1      -5.059  -2.697  29.591  0.00  0.00    +0.214 HD
ENDBRANCH   9  10
BRANCH   9  12
ATOM     12  O   UNL     1      -3.006  -1.697  30.581  0.00  0.00    -0.415 OA
BRANCH  12  13
ATOM     13  C   UNL     1      -3.219  -0.528  29.900  0.00  0.00    +0.420 C 
ATOM     14  O   UNL     1      -3.044  -0.491  28.662  0.00  0.00    -0.237 OA
ENDBRANCH  12  13
ENDBRANCH   9  12
ENDBRANCH   1   9
TORSDOF 4
REMARK  Name = =
REMARK  11 active torsions:
REMARK  status: ('A' for Active; 'I' for Inactive)
REMARK    1  A    between atoms: O_2  and  O_17
REMARK    2  A    between atoms: C_4  and  C_5
REMARK    3  A    between atoms: C_4  and  O_13
REMARK    4  A    between atoms: C_4  and  O_14
REMARK    5  A    between atoms: O_14  and  C_15
REMARK    6  A    between atoms: O_17  and  P_18
REMARK    7  A    between atoms: P_18  and  O_20
REMARK    8  A    between atoms: P_18  and  O_21
REMARK    9  A    between atoms: O_22  and  P_23
REMARK   10  A    between atoms: P_23  and  O_25
REMARK   11  A    between atoms: P_23  and  O_26
REMARK                            x       y       z     vdW  Elec       q    Type
REMARK                         _______ _______ _______ _____ _____    ______ ____
ROOT
ATOM      1  P   UNL     1      -6.041  -2.677  32.044  0.00  0.00    +0.470 P 
ATOM      2  O   UNL     1      -6.972  -2.112  30.963  0.00  0.00    -0.228 OA
ENDROOT
BRANCH   1   3
ATOM      3  O   UNL     1      -5.430  -4.169  31.661  0.00  0.00    -0.303 OA
ATOM      4  H   UNL     1      -4.851  -4.475  32.377  0.00  0.00    +0.222 HD
ENDBRANCH   1   3
BRANCH   1   5
ATOM      5  O   UNL     1      -7.038  -2.860  33.429  0.00  0.00    -0.303 OA
ATOM      6  H   UNL     1      -6.512  -3.217  34.161  0.00  0.00    +0.222 HD
ENDBRANCH   1   5
BRANCH   1   7
ATOM      7  O   UNL     1      -4.905  -1.502  32.375  0.00  0.00    -0.303 OA
ATOM      8  H   UNL     1      -4.296  -1.824  33.057  0.00  0.00    +0.222 HD
ENDBRANCH   1   7
TORSDOF 3
