REMARK  Name = =
REMARK  12 active torsions:
REMARK  status: ('A' for Active; 'I' for Inactive)
REMARK    1  A    between atoms: C_1  and  C_2
REMARK    2  A    between atoms: C_1  and  O_26
REMARK    3  A    between atoms: C_1  and  O_27
REMARK    4  A    between atoms: C_6  and  C_10
REMARK    5  A    between atoms: N_11  and  N_12
REMARK    6  A    between atoms: O_16  and  P_17
REMARK    7  A    between atoms: P_17  and  O_19
REMARK    8  A    between atoms: P_17  and  O_20
REMARK    9  A    between atoms: O_21  and  P_22
REMARK   10  A    between atoms: P_22  and  O_24
REMARK   11  A    between atoms: P_22  and  O_25
REMARK   12  A    between atoms: O_27  and  C_28
REMARK                            x       y       z     vdW  Elec       q    Type
REMARK                         _______ _______ _______ _____ _____    ______ ____
ROOT
ATOM      1  C   UNL     1      -0.329  -5.467  29.837  0.00  0.00    +0.129 C 
ATOM      2  N   UNL     1       0.326  -4.884  30.973  0.00  0.00    -0.216 NA
ATOM      3  C   UNL     1       1.614  -5.547  30.973  0.00  0.00    +0.073 C 
ATOM      4  C   UNL     1       1.241  -6.971  30.713  0.00  0.00    +0.025 C 
ATOM      5  C   UNL     1      -0.083  -6.925  29.931  0.00  0.00    +0.065 C 
ATOM      6  C   UNL     1       2.471  -4.940  29.898  0.00  0.00    +0.017 C 
ATOM      7  C   UNL     1       1.835  -5.183  28.566  0.00  0.00    +0.003 C 
ATOM      8  C   UNL     1       0.372  -4.906  28.595  0.00  0.00    +0.023 C 
ENDROOT
BRANCH   5   9
ATOM      9  C   UNL     1       0.149  -7.614  28.641  0.00  0.00    +0.092 C 
ATOM     10  N   UNL     1      -0.790  -8.107  27.937  0.00  0.00    -0.192 NA
BRANCH  10  11
ATOM     11  N   UNL     1      -0.663  -8.756  26.741  0.00  0.00    -0.282 N 
ATOM     12  H   UNL     1      -1.462  -9.099  26.280  0.00  0.00    +0.164 HD
ATOM     13  H   UNL     1       0.228  -8.880  26.341  0.00  0.00    +0.164 HD
ENDBRANCH  10  11
ENDBRANCH   5   9
BRANCH   1  14
ATOM     14  C   UNL     1      -1.771  -5.050  29.714  0.00  0.00    +0.302 C 
BRANCH  14  15
ATOM     15  O   UNL     1      -2.447  -5.566  28.649  0.00  0.00    -0.349 OA
ATOM     16  H   UNL     1      -3.361  -5.241  28.658  0.00  0.00    +0.214 HD
ENDBRANCH  14  15
BRANCH  14  17
ATOM     17  O   UNL     1      -1.852  -3.667  29.840  0.00  0.00    -0.415 OA
BRANCH  17  18
ATOM     18  C   UNL     1      -2.526  -2.834  28.978  0.00  0.00    +0.420 C 
ATOM     19  O   UNL     1      -2.870  -3.250  27.852  0.00  0.00    -0.237 OA
ENDBRANCH  17  18
ENDBRANCH  14  17
ENDBRANCH   1  14
TORSDOF 6
REMARK  Name = =
REMARK  12 active torsions:
REMARK  status: ('A' for Active; 'I' for Inactive)
REMARK    1  A    between atoms: C_1  and  C_2
REMARK    2  A    between atoms: C_1  and  O_26
REMARK    3  A    between atoms: C_1  and  O_27
REMARK    4  A    between atoms: C_6  and  C_10
REMARK    5  A    between atoms: N_11  and  N_12
REMARK    6  A    between atoms: O_16  and  P_17
REMARK    7  A    between atoms: P_17  and  O_19
REMARK    8  A    between atoms: P_17  and  O_20
REMARK    9  A    between atoms: O_21  and  P_22
REMARK   10  A    between atoms: P_22  and  O_24
REMARK   11  A    between atoms: P_22  and  O_25
REMARK   12  A    between atoms: O_27  and  C_28
REMARK                            x       y       z     vdW  Elec       q    Type
REMARK                         _______ _______ _______ _____ _____    ______ ____
ROOT
ATOM      1  P   UNL     1      -2.630  -5.732  31.157  0.00  0.00    +0.000 P 
ENDROOT
TORSDOF 0
REMARK  Name = =
REMARK  12 active torsions:
REMARK  status: ('A' for Active; 'I' for Inactive)
REMARK    1  A    between atoms: C_1  and  C_2
REMARK    2  A    between atoms: C_1  and  O_26
REMARK    3  A    between atoms: C_1  and  O_27
REMARK    4  A    between atoms: C_6  and  C_10
REMARK    5  A    between atoms: N_11  and  N_12
REMARK    6  A    between atoms: O_16  and  P_17
REMARK    7  A    between atoms: P_17  and  O_19
REMARK    8  A    between atoms: P_17  and  O_20
REMARK    9  A    between atoms: O_21  and  P_22
REMARK   10  A    between atoms: P_22  and  O_24
REMARK   11  A    between atoms: P_22  and  O_25
REMARK   12  A    between atoms: O_27  and  C_28
REMARK                            x       y       z     vdW  Elec       q    Type
REMARK                         _______ _______ _______ _____ _____    ______ ____
ROOT
ATOM      1  P   UNL     1      -4.439  -3.723  31.968  0.00  0.00    +0.501 P 
ATOM      2  O   UNL     1      -3.483  -2.640  32.368  0.00  0.00    -0.225 OA
ENDROOT
BRANCH   1   4
ATOM      3  O   UNL     1      -2.494  -5.029  32.437  0.00  0.00    -0.025 OA
ATOM      4  O   UNL     1      -3.744  -5.208  32.245  0.00  0.00    -0.093 OA
ENDBRANCH   1   4
BRANCH   1   5
ATOM      5  O   UNL     1      -5.787  -3.603  33.019  0.00  0.00    -0.301 OA
ATOM      6  H   UNL     1      -5.492  -3.712  33.937  0.00  0.00    +0.222 HD
ENDBRANCH   1   5
BRANCH   1   7
ATOM      7  O   UNL     1      -4.992  -3.528  30.381  0.00  0.00    -0.301 OA
ATOM      8  H   UNL     1      -4.243  -3.592  29.768  0.00  0.00    +0.222 HD
ENDBRANCH   1   7
TORSDOF 3
REMARK  Name = =
REMARK  12 active torsions:
REMARK  status: ('A' for Active; 'I' for Inactive)
REMARK    1  A    between atoms: C_1  and  C_2
REMARK    2  A    between atoms: C_1  and  O_26
REMARK    3  A    between atoms: C_1  and  O_27
REMARK    4  A    between atoms: C_6  and  C_10
REMARK    5  A    between atoms: N_11  and  N_12
REMARK    6  A    between atoms: O_16  and  P_17
REMARK    7  A    between atoms: P_17  and  O_19
REMARK    8  A    between atoms: P_17  and  O_20
REMARK    9  A    between atoms: O_21  and  P_22
REMARK   10  A    between atoms: P_22  and  O_24
REMARK   11  A    between atoms: P_22  and  O_25
REMARK   12  A    between atoms: O_27  and  C_28
REMARK                            x       y       z     vdW  Elec       q    Type
REMARK                         _______ _______ _______ _____ _____    ______ ____
ROOT
ATOM      1  O   HOH     1      -4.016  -6.605  30.884  0.00  0.00    -0.253 OA
ATOM      2  H   HOH     0      -3.046  -6.605  30.884  0.00  0.00    +0.253 HD
ENDROOT
TORSDOF 0
REMARK  Name = =
REMARK  12 active torsions:
REMARK  status: ('A' for Active; 'I' for Inactive)
REMARK    1  A    between atoms: C_1  and  C_2
REMARK    2  A    between atoms: C_1  and  O_26
REMARK    3  A    between atoms: C_1  and  O_27
REMARK    4  A    between atoms: C_6  and  C_10
REMARK    5  A    between atoms: N_11  and  N_12
REMARK    6  A    between atoms: O_16  and  P_17
REMARK    7  A    between atoms: P_17  and  O_19
REMARK    8  A    between atoms: P_17  and  O_20
REMARK    9  A    between atoms: O_21  and  P_22
REMARK   10  A    between atoms: P_22  and  O_24
REMARK   11  A    between atoms: P_22  and  O_25
REMARK   12  A    between atoms: O_27  and  C_28
REMARK                            x       y       z     vdW  Elec       q    Type
REMARK                         _______ _______ _______ _____ _____    ______ ____
ROOT
ATOM      1  P   UNL     1      -2.001  -8.119  32.473  0.00  0.00    +0.470 P 
ATOM      2  O   UNL     1      -0.607  -8.543  32.910  0.00  0.00    -0.228 OA
ENDROOT
BRANCH   1   3
ATOM      3  O   UNL     1      -2.054  -6.439  32.543  0.00  0.00    -0.303 OA
ATOM      4  H   UNL     1      -1.922  -6.149  33.459  0.00  0.00    +0.222 HD
ENDBRANCH   1   3
BRANCH   1   5
ATOM      5  O   UNL     1      -3.146  -8.793  33.505  0.00  0.00    -0.303 OA
ATOM      6  H   UNL     1      -3.010  -8.455  34.404  0.00  0.00    +0.222 HD
ENDBRANCH   1   5
BRANCH   1   7
ATOM      7  O   UNL     1      -2.223  -8.697  30.906  0.00  0.00    -0.303 OA
ATOM      8  H   UNL     1      -1.559  -8.303  30.319  0.00  0.00    +0.222 HD
ENDBRANCH   1   7
TORSDOF 3
