REMARK  Name = =
REMARK  15 active torsions:
REMARK  status: ('A' for Active; 'I' for Inactive)
REMARK    1  A    between atoms: C_1  and  C_2
REMARK    2  A    between atoms: C_1  and  O_26
REMARK    3  A    between atoms: C_1  and  O_34
REMARK    4  A    between atoms: C_6  and  C_10
REMARK    5  A    between atoms: N_11  and  N_12
REMARK    6  A    between atoms: O_14  and  O_16
REMARK    7  A    between atoms: O_16  and  O_21
REMARK    8  A    between atoms: P_17  and  O_19
REMARK    9  A    between atoms: P_17  and  O_20
REMARK   10  A    between atoms: O_21  and  P_22
REMARK   11  A    between atoms: P_22  and  O_24
REMARK   12  A    between atoms: P_22  and  O_25
REMARK   13  A    between atoms: O_26  and  N_27
REMARK   14  A    between atoms: C_31  and  O_33
REMARK   15  A    between atoms: O_34  and  C_35
REMARK                            x       y       z     vdW  Elec       q    Type
REMARK                         _______ _______ _______ _____ _____    ______ ____
ROOT
ATOM      1  C   UNL     1      -0.146  -6.206  30.027  0.00  0.00    +0.327 C 
ENDROOT
BRANCH   1   2
ATOM      2  C   UNL     1      -0.148  -7.406  29.076  0.00  0.00    +0.135 C 
ATOM      3  N   UNL     1      -1.282  -7.222  28.195  0.00  0.00    -0.211 NA
ATOM      4  C   UNL     1      -0.836  -7.967  27.025  0.00  0.00    +0.095 C 
ATOM      5  C   UNL     1       0.512  -7.245  26.829  0.00  0.00    +0.029 C 
ATOM      6  C   UNL     1       1.064  -7.545  28.240  0.00  0.00    +0.066 C 
ATOM      7  C   UNL     1      -0.519  -9.404  27.314  0.00  0.00    -0.014 C 
ATOM      8  C   UNL     1      -0.317  -9.806  28.707  0.00  0.00    -0.028 C 
ATOM      9  C   UNL     1      -0.387  -8.725  29.755  0.00  0.00    +0.048 C 
BRANCH   6  10
ATOM     10  C   UNL     1       2.237  -6.777  28.551  0.00  0.00    +0.092 C 
ATOM     11  N   UNL     1       3.409  -7.273  28.448  0.00  0.00    -0.192 NA
BRANCH  11  12
ATOM     12  N   UNL     1       3.531  -8.594  28.020  0.00  0.00    -0.282 N 
ATOM     13  H   UNL     1       4.422  -9.002  27.931  0.00  0.00    +0.164 HD
ATOM     14  H   UNL     1       2.726  -9.119  27.806  0.00  0.00    +0.164 HD
ENDBRANCH  11  12
ENDBRANCH   6  10
ENDBRANCH   1   2
BRANCH   1  15
ATOM     15  O   UNL     1       0.657  -6.481  30.992  0.00  0.00    -0.210 OA
BRANCH  15  16
ATOM     16  N   UNL     1       1.295  -6.155  31.989  0.00  0.00    -0.058 N 
ATOM     17  C   UNL     1       2.303  -5.153  32.217  0.00  0.00    +0.333 C 
ATOM     18  O   UNL     1       2.704  -4.427  31.303  0.00  0.00    -0.250 OA
ATOM     19  N   UNL     1       2.891  -4.943  33.495  0.00  0.00    -0.311 N 
ATOM     20  C   UNL     1       1.084  -6.936  33.209  0.00  0.00    +0.432 C 
ATOM     21  O   UNL     1       1.671  -6.671  34.287  0.00  0.00    -0.224 OA
ATOM     22  H   UNL     1       2.611  -5.493  34.262  0.00  0.00    +0.147 HD
ATOM     23  H   UNL     1       3.578  -4.248  33.612  0.00  0.00    +0.147 HD
BRANCH  20  24
ATOM     24  O   UNL     1       0.208  -7.993  33.152  0.00  0.00    -0.464 OA
ATOM     25  H   UNL     1      -0.232  -8.194  32.350  0.00  0.00    +0.297 HD
ENDBRANCH  20  24
ENDBRANCH  15  16
ENDBRANCH   1  15
BRANCH   1  26
ATOM     26  O   UNL     1       0.287  -5.127  29.160  0.00  0.00    -0.414 OA
BRANCH  26  27
ATOM     27  C   UNL     1       0.316  -3.814  29.517  0.00  0.00    +0.420 C 
ATOM     28  O   UNL     1      -0.152  -3.472  30.634  0.00  0.00    -0.237 OA
ENDBRANCH  26  27
ENDBRANCH   1  26
TORSDOF 8
REMARK  Name = =
REMARK  15 active torsions:
REMARK  status: ('A' for Active; 'I' for Inactive)
REMARK    1  A    between atoms: C_1  and  C_2
REMARK    2  A    between atoms: C_1  and  O_26
REMARK    3  A    between atoms: C_1  and  O_34
REMARK    4  A    between atoms: C_6  and  C_10
REMARK    5  A    between atoms: N_11  and  N_12
REMARK    6  A    between atoms: O_14  and  O_16
REMARK    7  A    between atoms: O_16  and  O_21
REMARK    8  A    between atoms: P_17  and  O_19
REMARK    9  A    between atoms: P_17  and  O_20
REMARK   10  A    between atoms: O_21  and  P_22
REMARK   11  A    between atoms: P_22  and  O_24
REMARK   12  A    between atoms: P_22  and  O_25
REMARK   13  A    between atoms: O_26  and  N_27
REMARK   14  A    between atoms: C_31  and  O_33
REMARK   15  A    between atoms: O_34  and  C_35
REMARK                            x       y       z     vdW  Elec       q    Type
REMARK                         _______ _______ _______ _____ _____    ______ ____
ROOT
ATOM      1  P   UNL     1      -1.727  -5.619  30.542  0.00  0.00    +0.000 P 
ENDROOT
TORSDOF 0
REMARK  Name = =
REMARK  15 active torsions:
REMARK  status: ('A' for Active; 'I' for Inactive)
REMARK    1  A    between atoms: C_1  and  C_2
REMARK    2  A    between atoms: C_1  and  O_26
REMARK    3  A    between atoms: C_1  and  O_34
REMARK    4  A    between atoms: C_6  and  C_10
REMARK    5  A    between atoms: N_11  and  N_12
REMARK    6  A    between atoms: O_14  and  O_16
REMARK    7  A    between atoms: O_16  and  O_21
REMARK    8  A    between atoms: P_17  and  O_19
REMARK    9  A    between atoms: P_17  and  O_20
REMARK   10  A    between atoms: O_21  and  P_22
REMARK   11  A    between atoms: P_22  and  O_24
REMARK   12  A    between atoms: P_22  and  O_25
REMARK   13  A    between atoms: O_26  and  N_27
REMARK   14  A    between atoms: C_31  and  O_33
REMARK   15  A    between atoms: O_34  and  C_35
REMARK                            x       y       z     vdW  Elec       q    Type
REMARK                         _______ _______ _______ _____ _____    ______ ____
ROOT
ATOM      1  P   UNL     1      -3.855  -3.916  30.428  0.00  0.00    +0.501 P 
ATOM      2  O   UNL     1      -5.217  -3.692  30.990  0.00  0.00    -0.225 OA
ENDROOT
BRANCH   1   3
ATOM      3  O   UNL     1      -2.782  -2.860  31.191  0.00  0.00    -0.301 OA
ATOM      4  H   UNL     1      -2.691  -3.110  32.124  0.00  0.00    +0.222 HD
ENDBRANCH   1   3
BRANCH   1   5
ATOM      5  O   UNL     1      -3.968  -3.415  28.785  0.00  0.00    -0.301 OA
ATOM      6  H   UNL     1      -4.579  -4.000  28.310  0.00  0.00    +0.222 HD
ENDBRANCH   1   5
BRANCH   1   7
ATOM      7  O   UNL     1      -3.340  -5.500  30.388  0.00  0.00    -0.096 OA
BRANCH   7   8
ATOM      8  O   UNL     1      -2.923  -6.344  31.363  0.00  0.00    -0.059 OA
BRANCH   8   9
ATOM      9  O   UNL     1      -2.359  -6.953  30.556  0.00  0.00    -0.220 OA
ATOM     10  H   UNL     1      -1.909  -7.704  30.973  0.00  0.00    +0.256 HD
ENDBRANCH   8   9
ENDBRANCH   7   8
ENDBRANCH   1   7
TORSDOF 5
REMARK  Name = =
REMARK  15 active torsions:
REMARK  status: ('A' for Active; 'I' for Inactive)
REMARK    1  A    between atoms: C_1  and  C_2
REMARK    2  A    between atoms: C_1  and  O_26
REMARK    3  A    between atoms: C_1  and  O_34
REMARK    4  A    between atoms: C_6  and  C_10
REMARK    5  A    between atoms: N_11  and  N_12
REMARK    6  A    between atoms: O_14  and  O_16
REMARK    7  A    between atoms: O_16  and  O_21
REMARK    8  A    between atoms: P_17  and  O_19
REMARK    9  A    between atoms: P_17  and  O_20
REMARK   10  A    between atoms: O_21  and  P_22
REMARK   11  A    between atoms: P_22  and  O_24
REMARK   12  A    between atoms: P_22  and  O_25
REMARK   13  A    between atoms: O_26  and  N_27
REMARK   14  A    between atoms: C_31  and  O_33
REMARK   15  A    between atoms: O_34  and  C_35
REMARK                            x       y       z     vdW  Elec       q    Type
REMARK                         _______ _______ _______ _____ _____    ______ ____
ROOT
ATOM      1  O   HOH     1      -1.950  -4.845  29.078  0.00  0.00    -0.253 OA
ATOM      2  H   HOH     0      -0.980  -4.845  29.078  0.00  0.00    +0.253 HD
ENDROOT
TORSDOF 0
REMARK  Name = =
REMARK  15 active torsions:
REMARK  status: ('A' for Active; 'I' for Inactive)
REMARK    1  A    between atoms: C_1  and  C_2
REMARK    2  A    between atoms: C_1  and  O_26
REMARK    3  A    between atoms: C_1  and  O_34
REMARK    4  A    between atoms: C_6  and  C_10
REMARK    5  A    between atoms: N_11  and  N_12
REMARK    6  A    between atoms: O_14  and  O_16
REMARK    7  A    between atoms: O_16  and  O_21
REMARK    8  A    between atoms: P_17  and  O_19
REMARK    9  A    between atoms: P_17  and  O_20
REMARK   10  A    between atoms: O_21  and  P_22
REMARK   11  A    between atoms: P_22  and  O_24
REMARK   12  A    between atoms: P_22  and  O_25
REMARK   13  A    between atoms: O_26  and  N_27
REMARK   14  A    between atoms: C_31  and  O_33
REMARK   15  A    between atoms: O_34  and  C_35
REMARK                            x       y       z     vdW  Elec       q    Type
REMARK                         _______ _______ _______ _____ _____    ______ ____
ROOT
ATOM      1  P   UNL     1      -3.132  -5.946  32.964  0.00  0.00    +0.359 P 
ATOM      2  O   UNL     1      -4.228  -6.880  33.507  0.00  0.00    -0.145 OA
ENDROOT
BRANCH   1   3
ATOM      3  O   UNL     1      -1.767  -6.315  33.920  0.00  0.00    -0.326 OA
ATOM      4  H   UNL     1      -1.019  -5.764  33.642  0.00  0.00    +0.219 HD
ENDBRANCH   1   3
BRANCH   1   5
ATOM      5  O   UNL     1      -3.671  -4.392  33.250  0.00  0.00    -0.326 OA
ATOM      6  H   UNL     1      -4.445  -4.211  32.694  0.00  0.00    +0.219 HD
ENDBRANCH   1   5
TORSDOF 2
