MODEL 1
REMARK VINA RESULT:    -9.515      0.000      0.000
REMARK INTER + INTRA:         -13.901
REMARK INTER:                 -12.019
REMARK INTRA:                  -1.883
REMARK UNBOUND:                -1.883
REMARK  Name = =
REMARK  5 active torsions:
REMARK  status: ('A' for Active; 'I' for Inactive)
REMARK    1  A    between atoms: C_1  and  C_18
REMARK    2  A    between atoms: C_4  and  O_42
REMARK    3  A    between atoms: C_14  and  N_35
REMARK    4  A    between atoms: O_42  and  C_43
REMARK    5  A    between atoms: C_43  and  O_45
REMARK                            x       y       z     vdW  Elec       q    Type
REMARK                         _______ _______ _______ _____ _____    ______ ____
ROOT
ATOM      1  C   UNL     1       1.904  -7.172  27.545  0.00  0.00    +0.041 C 
ATOM      2  C   UNL     1       1.169  -5.886  27.176  0.00  0.00    +0.009 C 
ATOM      3  C   UNL     1       2.101  -4.714  27.223  0.00  0.00    +0.041 C 
ATOM      4  C   UNL     1       1.442  -3.387  27.481  0.00  0.00    +0.172 C 
ATOM      5  C   UNL     1       0.127  -3.399  28.114  0.00  0.00    +0.045 C 
ATOM      6  C   UNL     1      -1.069  -3.306  27.243  0.00  0.00    +0.060 C 
ATOM      7  C   UNL     1      -2.193  -2.504  27.857  0.00  0.00    +0.118 C 
ATOM      8  O   UNL     1      -2.034  -1.449  26.997  0.00  0.00    -0.356 OA
ATOM      9  C   UNL     1      -1.126  -2.179  26.263  0.00  0.00    +0.145 C 
ATOM     10  C   UNL     1      -1.791  -2.110  29.259  0.00  0.00    +0.030 C 
ATOM     11  C   UNL     1      -1.409  -3.396  29.970  0.00  0.00    +0.003 C 
ATOM     12  C   UNL     1      -0.106  -3.958  29.427  0.00  0.00    +0.005 C 
ATOM     13  C   UNL     1       0.913  -3.904  30.480  0.00  0.00    +0.020 C 
ATOM     14  C   UNL     1       1.725  -5.199  30.638  0.00  0.00    +0.082 C 
ATOM     15  C   UNL     1       2.283  -5.630  29.368  0.00  0.00    +0.019 C 
ATOM     16  C   UNL     1       1.938  -6.841  29.121  0.00  0.00    +0.008 C 
ATOM     17  C   UNL     1       3.130  -4.891  28.343  0.00  0.00    +0.005 C 
ENDROOT
BRANCH   1  18
ATOM     18  C   UNL     1       1.052  -8.343  27.615  0.00  0.00    +0.064 C 
ATOM     19  N   UNL     1      -0.152  -8.231  28.285  0.00  0.00    -0.228 NA
ATOM     20  C   UNL     1      -0.930  -9.268  28.581  0.00  0.00    +0.199 C 
ATOM     21  N   UNL     1      -0.582 -10.507  28.241  0.00  0.00    -0.224 NA
ATOM     22  C   UNL     1       0.567 -10.703  27.584  0.00  0.00    +0.088 C 
ATOM     23  C   UNL     1       1.412  -9.608  27.253  0.00  0.00    +0.064 C 
ATOM     24  C   UNL     1       2.545  -9.835  26.532  0.00  0.00    +0.146 C 
ATOM     25  N   UNL     1       3.382  -8.850  26.009  0.00  0.00    -0.185 N 
ATOM     26  C   UNL     1       4.729  -8.633  26.299  0.00  0.00    +0.260 C 
ATOM     27  O   UNL     1       5.512  -9.321  27.042  0.00  0.00    -0.269 OA
ATOM     28  C   UNL     1       5.266  -7.416  25.615  0.00  0.00    +0.063 C 
ATOM     29  C   UNL     1       4.138  -7.013  24.709  0.00  0.00    +0.063 C 
ATOM     30  C   UNL     1       3.017  -7.952  24.989  0.00  0.00    +0.260 C 
ATOM     31  O   UNL     1       1.914  -7.931  24.387  0.00  0.00    -0.269 OA
ATOM     32  N   UNL     1       2.826 -11.140  26.168  0.00  0.00    -0.228 NA
ATOM     33  C   UNL     1       2.050 -12.167  26.478  0.00  0.00    +0.102 C 
ATOM     34  C   UNL     1       0.901 -11.976  27.192  0.00  0.00    +0.040 C 
ENDBRANCH   1  18
BRANCH  14  35
ATOM     35  N   UNL     1       1.102  -6.134  31.482  0.00  0.00    -0.232 N 
ATOM     36  C   UNL     1      -0.168  -6.774  31.420  0.00  0.00    +0.232 C 
ATOM     37  O   UNL     1      -1.178  -6.328  30.865  0.00  0.00    -0.274 OA
ATOM     38  C   UNL     1      -0.095  -8.075  32.136  0.00  0.00    +0.095 C 
ATOM     39  C   UNL     1       0.805  -7.700  33.310  0.00  0.00    +0.095 C 
ATOM     40  C   UNL     1       1.680  -6.666  32.697  0.00  0.00    +0.232 C 
ATOM     41  O   UNL     1       2.796  -6.327  33.228  0.00  0.00    -0.274 OA
ENDBRANCH  14  35
BRANCH   4  42
ATOM     42  O   UNL     1       2.298  -2.557  28.229  0.00  0.00    -0.422 OA
BRANCH  42  43
ATOM     43  C   UNL     1       2.642  -1.270  27.991  0.00  0.00    +0.508 C 
ATOM     44  O   UNL     1       2.138  -0.362  28.689  0.00  0.00    -0.203 OA
BRANCH  43  45
ATOM     45  O   UNL     1       3.541  -0.883  26.996  0.00  0.00    -0.450 OA
ATOM     46  H   UNL     1       3.800  -1.495  26.335  0.00  0.00    +0.299 HD
ENDBRANCH  43  45
ENDBRANCH  42  43
ENDBRANCH   4  42
TORSDOF 5
ENDMDL
