REMARK  Name = =
REMARK  2 active torsions:
REMARK  status: ('A' for Active; 'I' for Inactive)
REMARK    1  A    between atoms: S_1  and  S_2
REMARK    2  A    between atoms: S_1  and  S_3
REMARK                            x       y       z     vdW  Elec       q    Type
REMARK                         _______ _______ _______ _____ _____    ______ ____
ROOT
ATOM      1  S   UNL     1      -3.717  -3.808  30.984  0.00  0.00    -0.031 S 
ENDROOT
BRANCH   1   2
ATOM      2  S   UNL     1      -2.582  -4.085  29.200  0.00  0.00    -0.099 S 
ATOM      3  H   UNL     1      -2.370  -2.880  28.606  0.00  0.00    +0.115 HD
ENDBRANCH   1   2
BRANCH   1   4
ATOM      4  S   UNL     1      -4.041  -5.690  31.900  0.00  0.00    -0.099 S 
ATOM      5  H   UNL     1      -4.765  -5.521  33.039  0.00  0.00    +0.115 HD
ENDBRANCH   1   4
TORSDOF 2
