REMARK  Name = =
REMARK  5 active torsions:
REMARK  status: ('A' for Active; 'I' for Inactive)
REMARK    1  A    between atoms: C_1  and  C_2
REMARK    2  A    between atoms: C_1  and  O_8
REMARK    3  A    between atoms: O_8  and  O_9
REMARK    4  A    between atoms: O_9  and  C_10
REMARK    5  A    between atoms: C_10  and  O_12
REMARK                            x       y       z     vdW  Elec       q    Type
REMARK                         _______ _______ _______ _____ _____    ______ ____
ROOT
ATOM      1  C   UNL     1     -10.165 -43.413  32.519  0.00  0.00    +0.222 C 
ENDROOT
BRANCH   1   2
ATOM      2  C   UNL     1     -10.172 -44.283  31.327  0.00  0.00    +0.012 C 
ATOM      3  C   UNL     1      -9.382 -45.409  31.262  0.00  0.00    -0.002 C 
ATOM      4  C   UNL     1      -9.396 -46.230  30.127  0.00  0.00    -0.000 C 
ATOM      5  C   UNL     1     -10.205 -45.912  29.062  0.00  0.00    -0.000 C 
ATOM      6  C   UNL     1     -10.999 -44.788  29.113  0.00  0.00    -0.000 C 
ATOM      7  C   UNL     1     -10.974 -43.986  30.246  0.00  0.00    -0.002 C 
ENDBRANCH   1   2
BRANCH   1   8
ATOM      8  O   UNL     1      -9.142 -42.468  32.495  0.00  0.00    -0.162 OA
BRANCH   8   9
ATOM      9  O   UNL     1      -8.842 -42.212  33.776  0.00  0.00    -0.258 OA
BRANCH   9  10
ATOM     10  C   UNL     1      -9.728 -41.624  34.636  0.00  0.00    +0.539 C 
ATOM     11  O   UNL     1     -10.358 -40.612  34.248  0.00  0.00    -0.201 OA
BRANCH  10  12
ATOM     12  O   UNL     1      -9.982 -42.074  35.928  0.00  0.00    -0.448 OA
ATOM     13  H   UNL     1     -10.603 -41.625  36.467  0.00  0.00    +0.299 HD
ENDBRANCH  10  12
ENDBRANCH   9  10
ENDBRANCH   8   9
ENDBRANCH   1   8
TORSDOF 5
