MODEL 1
REMARK VINA RESULT:    -8.576      0.000      0.000
REMARK INTER + INTRA:         -18.526
REMARK INTER:                 -15.344
REMARK INTRA:                  -3.181
REMARK UNBOUND:                -3.181
REMARK  Name = =
REMARK  14 active torsions:
REMARK  status: ('A' for Active; 'I' for Inactive)
REMARK    1  A    between atoms: C_1  and  N_8
REMARK    2  A    between atoms: C_1  and  C_9
REMARK    3  A    between atoms: C_1  and  C_27
REMARK    4  A    between atoms: C_12  and  C_15
REMARK    5  A    between atoms: C_13  and  C_17
REMARK    6  A    between atoms: C_17  and  C_18
REMARK    7  A    between atoms: C_18  and  O_19
REMARK    8  A    between atoms: C_18  and  C_20
REMARK    9  A    between atoms: C_20  and  N_21
REMARK   10  A    between atoms: C_27  and  N_28
REMARK   11  A    between atoms: C_33  and  N_34
REMARK   12  A    between atoms: N_34  and  O_35
REMARK   13  A    between atoms: O_35  and  C_36
REMARK   14  A    between atoms: C_36  and  C_37
REMARK                            x       y       z     vdW  Elec       q    Type
REMARK                         _______ _______ _______ _____ _____    ______ ____
ROOT
ATOM      1  C   UNL     1       0.967  -4.783  29.576  0.00  0.00    +0.150 C 
ENDROOT
BRANCH   1   8
ATOM      2  O   UNL     1      -1.241  -6.290  30.245  0.00  0.00    -0.273 OA
ATOM      3  C   UNL     1      -0.247  -6.371  31.005  0.00  0.00    +0.242 C 
ATOM      4  C   UNL     1      -0.249  -7.342  32.127  0.00  0.00    +0.155 C 
ATOM      5  N   UNL     1       0.491  -6.743  33.214  0.00  0.00    -0.288 NA
ATOM      6  C   UNL     1       1.862  -6.475  32.846  0.00  0.00    +0.091 C 
ATOM      7  C   UNL     1       1.958  -5.411  31.771  0.00  0.00    +0.111 C 
ATOM      8  N   UNL     1       0.884  -5.543  30.805  0.00  0.00    -0.271 N 
ATOM      9  H   UNL     1       0.481  -7.381  34.011  0.00  0.00    +0.124 HD
ENDBRANCH   1   8
BRANCH   1  10
ATOM     10  C   UNL     1       2.187  -5.265  28.834  0.00  0.00    +0.158 C 
ATOM     11  N   UNL     1       2.274  -6.498  28.302  0.00  0.00    -0.227 NA
ATOM     12  C   UNL     1       3.363  -6.915  27.635  0.00  0.00    +0.110 C 
ATOM     13  C   UNL     1       4.459  -6.077  27.465  0.00  0.00    +0.075 C 
ATOM     14  C   UNL     1       4.384  -4.820  28.004  0.00  0.00    +0.072 C 
ATOM     15  N   UNL     1       3.242  -4.465  28.670  0.00  0.00    -0.233 NA
BRANCH  13  16
ATOM     16  C   UNL     1       5.586  -6.513  26.674  0.00  0.00    -0.048 C 
ATOM     17  C   UNL     1       6.536  -6.870  26.000  0.00  0.00    -0.009 C 
ENDBRANCH  13  16
BRANCH  14  18
ATOM     18  C   UNL     1       5.522  -3.891  27.951  0.00  0.00    +0.077 C 
BRANCH  18  19
ATOM     19  C   UNL     1       5.292  -2.692  27.088  0.00  0.00    +0.132 C 
BRANCH  19  20
ATOM     20  O   UNL     1       6.485  -1.891  27.273  0.00  0.00    -0.383 OA
ATOM     21  H   UNL     1       6.924  -2.149  28.098  0.00  0.00    +0.210 HD
ENDBRANCH  19  20
BRANCH  19  22
ATOM     22  C   UNL     1       5.172  -2.864  25.635  0.00  0.00    +0.102 C 
BRANCH  22  23
ATOM     23  N   UNL     1       3.862  -2.931  25.071  0.00  0.00    -0.266 NA
ATOM     24  C   UNL     1       3.921  -2.613  23.642  0.00  0.00    +0.105 C 
ATOM     25  C   UNL     1       4.520  -1.262  23.405  0.00  0.00    +0.159 C 
ATOM     26  O   UNL     1       4.043  -0.326  24.322  0.00  0.00    -0.351 OA
ATOM     27  C   UNL     1       2.775  -0.771  24.726  0.00  0.00    +0.159 C 
ATOM     28  C   UNL     1       2.938  -1.982  25.637  0.00  0.00    +0.105 C 
ENDBRANCH  22  23
ENDBRANCH  19  22
ENDBRANCH  18  19
ENDBRANCH  14  18
ENDBRANCH   1  10
BRANCH   1  29
ATOM     29  C   UNL     1       1.096  -3.296  29.793  0.00  0.00    +0.103 C 
BRANCH  29  30
ATOM     30  N   UNL     1       0.042  -2.540  29.214  0.00  0.00    -0.232 NA
ATOM     31  C   UNL     1       0.149  -1.576  28.144  0.00  0.00    +0.163 C 
ATOM     32  C   UNL     1      -1.265  -1.567  27.617  0.00  0.00    +0.260 C 
ATOM     33  O   UNL     1      -1.644  -1.204  26.477  0.00  0.00    -0.272 OA
ATOM     34  N   UNL     1      -2.063  -2.052  28.684  0.00  0.00    -0.172 NA
ATOM     35  C   UNL     1      -1.328  -2.600  29.580  0.00  0.00    +0.239 C 
BRANCH  35  36
ATOM     36  N   UNL     1      -1.792  -3.199  30.798  0.00  0.00    -0.157 NA
ATOM     37  H   UNL     1      -1.140  -2.957  31.545  0.00  0.00    +0.158 HD
BRANCH  36  38
ATOM     38  O   UNL     1      -3.053  -2.788  31.173  0.00  0.00    -0.277 OA
BRANCH  38  39
ATOM     39  C   UNL     1      -3.868  -3.884  30.941  0.00  0.00    +0.209 C 
BRANCH  39  40
ATOM     40  C   UNL     1      -3.804  -4.769  32.128  0.00  0.00    +0.076 C 
ATOM     41  C   UNL     1      -4.083  -6.116  32.080  0.00  0.00    +0.036 C 
ATOM     42  C   UNL     1      -3.916  -6.591  33.358  0.00  0.00    +0.119 C 
ATOM     43  N   UNL     1      -3.549  -5.548  34.133  0.00  0.00    -0.180 NA
ATOM     44  N   UNL     1      -3.485  -4.458  33.383  0.00  0.00    -0.237 N 
ATOM     45  H   UNL     1      -3.240  -3.559  33.704  0.00  0.00    +0.174 HD
ENDBRANCH  39  40
ENDBRANCH  38  39
ENDBRANCH  36  38
ENDBRANCH  35  36
ENDBRANCH  29  30
ENDBRANCH   1  29
TORSDOF 14
ENDMDL
