REMARK  Name = =
REMARK  14 active torsions:
REMARK  status: ('A' for Active; 'I' for Inactive)
REMARK    1  A    between atoms: C_1  and  N_8
REMARK    2  A    between atoms: C_1  and  C_9
REMARK    3  A    between atoms: C_1  and  C_27
REMARK    4  A    between atoms: C_12  and  C_15
REMARK    5  A    between atoms: C_13  and  C_17
REMARK    6  A    between atoms: C_17  and  C_18
REMARK    7  A    between atoms: C_18  and  O_19
REMARK    8  A    between atoms: C_18  and  C_20
REMARK    9  A    between atoms: C_20  and  N_21
REMARK   10  A    between atoms: C_27  and  N_28
REMARK   11  A    between atoms: C_33  and  N_34
REMARK   12  A    between atoms: N_34  and  O_35
REMARK   13  A    between atoms: O_35  and  C_36
REMARK   14  A    between atoms: C_36  and  C_37
REMARK                            x       y       z     vdW  Elec       q    Type
REMARK                         _______ _______ _______ _____ _____    ______ ____
ROOT
ATOM      1  C   UNL     1       4.536  -7.107  25.285  0.00  0.00    +0.150 C 
ENDROOT
BRANCH   1   8
ATOM      2  O   UNL     1       2.804  -9.158  24.660  0.00  0.00    -0.273 OA
ATOM      3  C   UNL     1       4.027  -9.435  24.686  0.00  0.00    +0.242 C 
ATOM      4  C   UNL     1       4.491 -10.781  24.266  0.00  0.00    +0.155 C 
ATOM      5  N   UNL     1       5.636 -11.114  25.082  0.00  0.00    -0.288 NA
ATOM      6  C   UNL     1       6.720 -10.178  24.892  0.00  0.00    +0.091 C 
ATOM      7  C   UNL     1       6.363  -8.794  25.395  0.00  0.00    +0.111 C 
ATOM      8  N   UNL     1       4.976  -8.475  25.113  0.00  0.00    -0.271 N 
ATOM      9  H   UNL     1       5.959 -12.049  24.832  0.00  0.00    +0.124 HD
ENDBRANCH   1   8
BRANCH   1  10
ATOM     10  C   UNL     1       3.835  -7.027  26.617  0.00  0.00    +0.158 C 
ATOM     11  N   UNL     1       3.978  -7.965  27.571  0.00  0.00    -0.227 NA
ATOM     12  C   UNL     1       3.355  -7.879  28.758  0.00  0.00    +0.110 C 
ATOM     13  C   UNL     1       2.526  -6.803  29.052  0.00  0.00    +0.075 C 
ATOM     14  C   UNL     1       2.370  -5.843  28.088  0.00  0.00    +0.072 C 
ATOM     15  N   UNL     1       3.037  -5.997  26.903  0.00  0.00    -0.233 NA
BRANCH  13  16
ATOM     16  C   UNL     1       1.932  -6.686  30.364  0.00  0.00    -0.048 C 
ATOM     17  C   UNL     1       1.423  -6.580  31.465  0.00  0.00    -0.009 C 
ENDBRANCH  13  16
BRANCH  14  18
ATOM     18  C   UNL     1       1.449  -4.711  28.271  0.00  0.00    +0.077 C 
BRANCH  18  19
ATOM     19  C   UNL     1       0.032  -5.012  27.902  0.00  0.00    +0.132 C 
BRANCH  19  20
ATOM     20  O   UNL     1       0.097  -5.335  26.491  0.00  0.00    -0.383 OA
ATOM     21  H   UNL     1       0.537  -4.614  26.014  0.00  0.00    +0.210 HD
ENDBRANCH  19  20
BRANCH  19  22
ATOM     22  C   UNL     1      -0.645  -6.158  28.521  0.00  0.00    +0.102 C 
BRANCH  22  23
ATOM     23  N   UNL     1      -1.084  -7.219  27.672  0.00  0.00    -0.266 NA
ATOM     24  C   UNL     1      -2.136  -7.987  28.342  0.00  0.00    +0.105 C 
ATOM     25  C   UNL     1      -1.665  -8.533  29.654  0.00  0.00    +0.159 C 
ATOM     26  O   UNL     1      -0.368  -9.036  29.559  0.00  0.00    -0.351 OA
ATOM     27  C   UNL     1      -0.184  -9.422  28.222  0.00  0.00    +0.159 C 
ATOM     28  C   UNL     1      -0.053  -8.174  27.357  0.00  0.00    +0.105 C 
ENDBRANCH  22  23
ENDBRANCH  19  22
ENDBRANCH  18  19
ENDBRANCH  14  18
ENDBRANCH   1  10
BRANCH   1  29
ATOM     29  C   UNL     1       3.582  -6.640  24.214  0.00  0.00    +0.103 C 
BRANCH  29  30
ATOM     30  N   UNL     1       4.162  -5.732  23.288  0.00  0.00    -0.232 NA
ATOM     31  C   UNL     1       4.734  -6.049  22.001  0.00  0.00    +0.163 C 
ATOM     32  C   UNL     1       4.638  -4.715  21.302  0.00  0.00    +0.260 C 
ATOM     33  O   UNL     1       4.640  -4.509  20.064  0.00  0.00    -0.272 OA
ATOM     34  N   UNL     1       4.548  -3.755  22.342  0.00  0.00    -0.172 NA
ATOM     35  C   UNL     1       4.279  -4.327  23.457  0.00  0.00    +0.239 C 
BRANCH  35  36
ATOM     36  N   UNL     1       4.115  -3.670  24.722  0.00  0.00    -0.157 NA
ATOM     37  H   UNL     1       4.992  -3.742  25.239  0.00  0.00    +0.158 HD
BRANCH  36  38
ATOM     38  O   UNL     1       3.782  -2.337  24.615  0.00  0.00    -0.277 OA
BRANCH  38  39
ATOM     39  C   UNL     1       2.415  -2.293  24.837  0.00  0.00    +0.209 C 
BRANCH  39  40
ATOM     40  C   UNL     1       1.851  -1.180  24.036  0.00  0.00    +0.076 C 
ATOM     41  C   UNL     1       1.196  -1.368  22.840  0.00  0.00    +0.036 C 
ATOM     42  C   UNL     1       0.822  -0.121  22.404  0.00  0.00    +0.119 C 
ATOM     43  N   UNL     1       1.248   0.774  23.321  0.00  0.00    -0.180 NA
ATOM     44  N   UNL     1       1.866   0.126  24.298  0.00  0.00    -0.237 N 
ATOM     45  H   UNL     1       2.272   0.544  25.092  0.00  0.00    +0.174 HD
ENDBRANCH  39  40
ENDBRANCH  38  39
ENDBRANCH  36  38
ENDBRANCH  35  36
ENDBRANCH  29  30
ENDBRANCH   1  29
TORSDOF 14
