REMARK  Name = =
REMARK  4 active torsions:
REMARK  status: ('A' for Active; 'I' for Inactive)
REMARK    1  A    between atoms: C_1  and  C_15
REMARK    2  A    between atoms: C_1  and  C_21
REMARK    3  A    between atoms: C_9  and  S_24
REMARK    4  A    between atoms: S_24  and  S_25
REMARK                            x       y       z     vdW  Elec       q    Type
REMARK                         _______ _______ _______ _____ _____    ______ ____
ROOT
ATOM      1  C   UNL     1     -24.145 -43.877  26.507  0.00  0.00    +0.015 C 
ATOM      2  C   UNL     1     -24.713 -43.742  25.144  0.00  0.00    +0.004 C 
ATOM      3  C   UNL     1     -24.736 -42.363  24.572  0.00  0.00    +0.000 C 
ATOM      4  C   UNL     1     -24.888 -42.389  23.042  0.00  0.00    +0.000 C 
ATOM      5  C   UNL     1     -23.620 -41.910  22.355  0.00  0.00    +0.000 C 
ATOM      6  C   UNL     1     -22.982 -43.013  21.578  0.00  0.00    +0.000 C 
ATOM      7  C   UNL     1     -21.514 -42.933  21.465  0.00  0.00    +0.003 C 
ATOM      8  C   UNL     1     -20.896 -41.607  21.728  0.00  0.00    +0.042 C 
ATOM      9  C   UNL     1     -19.827 -41.674  22.829  0.00  0.00    +0.172 C 
ATOM     10  O   UNL     1     -20.337 -41.437  24.077  0.00  0.00    -0.345 OA
ATOM     11  C   UNL     1     -19.959 -42.373  25.026  0.00  0.00    +0.143 C 
ATOM     12  C   UNL     1     -21.110 -42.692  25.996  0.00  0.00    +0.032 C 
ATOM     13  C   UNL     1     -21.854 -43.838  25.417  0.00  0.00    +0.003 C 
ATOM     14  C   UNL     1     -22.761 -44.590  26.316  0.00  0.00    +0.004 C 
ENDROOT
BRANCH   1  15
ATOM     15  C   UNL     1     -24.937 -44.894  27.240  0.00  0.00    -0.049 C 
ATOM     16  C   UNL     1     -26.203 -45.034  26.850  0.00  0.00    -0.035 C 
ATOM     17  C   UNL     1     -27.186 -45.978  27.430  0.00  0.00    +0.025 C 
ATOM     18  C   UNL     1     -26.604 -46.968  28.383  0.00  0.00    +0.005 C 
ATOM     19  C   UNL     1     -25.420 -46.412  29.137  0.00  0.00    +0.005 C 
ATOM     20  C   UNL     1     -24.382 -45.810  28.259  0.00  0.00    +0.022 C 
ENDBRANCH   1  15
BRANCH   1  21
ATOM     21  C   UNL     1     -23.941 -42.656  27.319  0.00  0.00    +0.003 C 
ATOM     22  C   UNL     1     -24.094 -42.662  28.802  0.00  0.00    +0.000 C 
ATOM     23  C   UNL     1     -25.068 -41.899  27.989  0.00  0.00    +0.000 C 
ENDBRANCH   1  21
BRANCH   9  24
ATOM     24  S   UNL     1     -18.562 -40.409  22.497  0.00  0.00    -0.057 S 
BRANCH  24  25
ATOM     25  S   UNL     1     -19.483 -38.698  21.673  0.00  0.00    -0.108 S 
ATOM     26  H   UNL     1     -18.539 -37.751  21.424  0.00  0.00    +0.114 HD
ENDBRANCH  24  25
ENDBRANCH   9  24
TORSDOF 4
