REMARK  Name = =
REMARK  6 active torsions:
REMARK  status: ('A' for Active; 'I' for Inactive)
REMARK    1  A    between atoms: C_1  and  C_15
REMARK    2  A    between atoms: C_1  and  C_27
REMARK    3  A    between atoms: C_2  and  C_21
REMARK    4  A    between atoms: C_9  and  S_36
REMARK    5  A    between atoms: C_27  and  N_30
REMARK    6  A    between atoms: S_36  and  S_37
REMARK                            x       y       z     vdW  Elec       q    Type
REMARK                         _______ _______ _______ _____ _____    ______ ____
ROOT
ATOM      1  C   UNL     1     -23.065 -40.585  21.919  0.00  0.00    +0.034 C 
ATOM      2  C   UNL     1     -24.356 -39.979  21.412  0.00  0.00    +0.027 C 
ATOM      3  C   UNL     1     -25.632 -40.362  22.065  0.00  0.00    +0.005 C 
ATOM      4  C   UNL     1     -26.572 -39.144  21.976  0.00  0.00    +0.000 C 
ATOM      5  C   UNL     1     -27.351 -38.918  23.243  0.00  0.00    +0.000 C 
ATOM      6  C   UNL     1     -26.521 -38.892  24.471  0.00  0.00    +0.000 C 
ATOM      7  C   UNL     1     -27.325 -38.326  25.620  0.00  0.00    +0.003 C 
ATOM      8  C   UNL     1     -26.409 -38.030  26.800  0.00  0.00    +0.042 C 
ATOM      9  C   UNL     1     -25.374 -39.126  26.991  0.00  0.00    +0.172 C 
ATOM     10  O   UNL     1     -24.397 -39.142  26.032  0.00  0.00    -0.345 OA
ATOM     11  C   UNL     1     -23.115 -39.359  26.443  0.00  0.00    +0.143 C 
ATOM     12  C   UNL     1     -22.468 -40.499  25.732  0.00  0.00    +0.032 C 
ATOM     13  C   UNL     1     -22.049 -40.134  24.282  0.00  0.00    +0.003 C 
ATOM     14  C   UNL     1     -23.177 -40.414  23.404  0.00  0.00    +0.006 C 
ENDROOT
BRANCH   1  15
ATOM     15  C   UNL     1     -22.041 -39.649  21.303  0.00  0.00    -0.047 C 
ATOM     16  C   UNL     1     -21.513 -39.968  20.131  0.00  0.00    -0.035 C 
ATOM     17  C   UNL     1     -20.512 -39.008  19.583  0.00  0.00    +0.025 C 
ATOM     18  C   UNL     1     -19.481 -38.740  20.652  0.00  0.00    +0.005 C 
ATOM     19  C   UNL     1     -20.070 -38.417  22.004  0.00  0.00    +0.005 C 
ATOM     20  C   UNL     1     -21.585 -38.365  21.831  0.00  0.00    +0.022 C 
ENDBRANCH   1  15
BRANCH   2  21
ATOM     21  C   UNL     1     -24.480 -39.604  20.007  0.00  0.00    -0.022 C 
ATOM     22  C   UNL     1     -24.742 -40.514  19.012  0.00  0.00    -0.004 C 
ATOM     23  C   UNL     1     -24.867 -40.159  17.674  0.00  0.00    -0.000 C 
ATOM     24  C   UNL     1     -24.734 -38.870  17.275  0.00  0.00    -0.000 C 
ATOM     25  C   UNL     1     -24.472 -37.923  18.233  0.00  0.00    -0.000 C 
ATOM     26  C   UNL     1     -24.354 -38.306  19.552  0.00  0.00    -0.004 C 
ENDBRANCH   2  21
BRANCH   1  27
ATOM     27  C   UNL     1     -22.684 -41.979  21.495  0.00  0.00    +0.061 C 
ATOM     28  C   UNL     1     -21.163 -42.181  21.545  0.00  0.00    +0.020 C 
ATOM     29  C   UNL     1     -21.904 -42.764  22.645  0.00  0.00    +0.020 C 
BRANCH  27  30
ATOM     30  N   UNL     1     -23.502 -42.955  20.915  0.00  0.00    -0.307 N 
ATOM     31  C   UNL     1     -24.501 -43.608  21.672  0.00  0.00    +0.077 C 
ATOM     32  C   UNL     1     -24.384 -45.107  21.725  0.00  0.00    +0.074 C 
ATOM     33  N   UNL     1     -23.302 -45.703  21.045  0.00  0.00    -0.329 N 
ATOM     34  C   UNL     1     -22.873 -45.085  19.837  0.00  0.00    +0.109 C 
ATOM     35  C   UNL     1     -23.199 -43.633  19.744  0.00  0.00    +0.112 C 
ATOM     36  H   UNL     1     -22.862 -46.513  21.391  0.00  0.00    +0.147 HD
ENDBRANCH  27  30
ENDBRANCH   1  27
BRANCH   9  37
ATOM     37  S   UNL     1     -24.716 -38.962  28.672  0.00  0.00    -0.057 S 
BRANCH  37  38
ATOM     38  S   UNL     1     -24.401 -36.912  29.175  0.00  0.00    -0.108 S 
ATOM     39  H   UNL     1     -23.908 -36.826  30.440  0.00  0.00    +0.114 HD
ENDBRANCH  37  38
ENDBRANCH   9  37
TORSDOF 6
