REMARK  Name = =
REMARK  0 active torsions:
REMARK  status: ('A' for Active; 'I' for Inactive)
REMARK                            x       y       z     vdW  Elec       q    Type
REMARK                         _______ _______ _______ _____ _____    ______ ____
ROOT
ATOM      1  N   UNL     1      -4.242  -4.817  30.703  0.00  0.00    -0.281 NA
ATOM      2  C   UNL     1      -4.927  -4.028  31.706  0.00  0.00    +0.089 C 
ATOM      3  C   UNL     1      -3.883  -2.984  32.033  0.00  0.00    +0.107 C 
ATOM      4  N   UNL     1      -3.191  -2.860  30.767  0.00  0.00    -0.200 NA
ATOM      5  C   UNL     1      -3.397  -3.900  30.019  0.00  0.00    +0.160 C 
ATOM      6  H   UNL     1      -4.912  -5.235  30.058  0.00  0.00    +0.125 HD
ENDROOT
TORSDOF 0
