REMARK  Name = =
REMARK  0 active torsions:
REMARK  status: ('A' for Active; 'I' for Inactive)
REMARK                            x       y       z     vdW  Elec       q    Type
REMARK                         _______ _______ _______ _____ _____    ______ ____
ROOT
ATOM      1  C   UNL     1      -4.004  -4.049  30.472  0.00  0.00    +0.104 C 
ATOM      2  N   UNL     1      -4.052  -5.291  30.971  0.00  0.00    -0.222 NA
ATOM      3  C   UNL     1      -2.946  -6.028  31.086  0.00  0.00    +0.199 C 
ATOM      4  N   UNL     1      -1.745  -5.546  30.703  0.00  0.00    -0.224 NA
ATOM      5  C   UNL     1      -1.683  -4.295  30.197  0.00  0.00    +0.088 C 
ATOM      6  C   UNL     1      -2.796  -3.495  30.059  0.00  0.00    +0.056 C 
ATOM      7  C   UNL     1      -2.736  -2.211  29.541  0.00  0.00    +0.102 C 
ATOM      8  N   UNL     1      -1.517  -1.774  29.173  0.00  0.00    -0.242 NA
ATOM      9  C   UNL     1      -0.411  -2.533  29.295  0.00  0.00    +0.100 C 
ATOM     10  C   UNL     1      -0.453  -3.806  29.807  0.00  0.00    +0.040 C 
ENDROOT
TORSDOF 0
