REMARK  Name = =
REMARK  1 active torsions:
REMARK  status: ('A' for Active; 'I' for Inactive)
REMARK    1  A    between atoms: C_1  and  C_10
REMARK                            x       y       z     vdW  Elec       q    Type
REMARK                         _______ _______ _______ _____ _____    ______ ____
ROOT
ATOM      1  C   UNL     1      -4.559  -1.678  32.397  0.00  0.00    +0.134 C 
ATOM      2  O   UNL     1      -5.465  -1.349  31.390  0.00  0.00    -0.347 OA
ATOM      3  C   UNL     1      -6.300  -0.351  31.939  0.00  0.00    +0.206 C 
ATOM      4  C   UNL     1      -5.441   0.888  31.983  0.00  0.00    +0.180 C 
ATOM      5  O   UNL     1      -5.973   1.959  31.922  0.00  0.00    -0.293 OA
ATOM      6  C   UNL     1      -3.964   0.741  32.100  0.00  0.00    +0.070 C 
ATOM      7  C   UNL     1      -3.565  -0.601  32.664  0.00  0.00    +0.039 C 
ENDROOT
BRANCH   1  10
ATOM      8  N   UNL     1      -4.244  -4.802  30.691  0.00  0.00    -0.281 NA
ATOM      9  C   UNL     1      -4.936  -4.036  31.743  0.00  0.00    +0.090 C 
ATOM     10  C   UNL     1      -3.893  -2.981  32.014  0.00  0.00    +0.117 C 
ATOM     11  N   UNL     1      -3.191  -2.880  30.766  0.00  0.00    -0.199 NA
ATOM     12  C   UNL     1      -3.375  -3.890  30.013  0.00  0.00    +0.160 C 
ATOM     13  H   UNL     1      -4.923  -5.191  30.037  0.00  0.00    +0.125 HD
ENDBRANCH   1  10
TORSDOF 1
