REMARK  Name = =
REMARK  1 active torsions:
REMARK  status: ('A' for Active; 'I' for Inactive)
REMARK    1  A    between atoms: C_9  and  N_11
REMARK                            x       y       z     vdW  Elec       q    Type
REMARK                         _______ _______ _______ _____ _____    ______ ____
ROOT
ATOM      1  C   UNL     1      -4.025  -4.049  30.466  0.00  0.00    +0.104 C 
ATOM      2  N   UNL     1      -4.057  -5.309  30.933  0.00  0.00    -0.222 NA
ATOM      3  C   UNL     1      -3.009  -6.130  30.713  0.00  0.00    +0.199 C 
ATOM      4  N   UNL     1      -1.927  -5.736  30.044  0.00  0.00    -0.224 NA
ATOM      5  C   UNL     1      -1.881  -4.474  29.570  0.00  0.00    +0.089 C 
ATOM      6  C   UNL     1      -2.928  -3.604  29.771  0.00  0.00    +0.056 C 
ATOM      7  C   UNL     1      -2.879  -2.314  29.283  0.00  0.00    +0.103 C 
ATOM      8  N   UNL     1      -1.789  -1.910  28.602  0.00  0.00    -0.228 NA
ATOM      9  C   UNL     1      -0.726  -2.704  28.366  0.00  0.00    +0.145 C 
ATOM     10  C   UNL     1      -0.789  -3.986  28.858  0.00  0.00    +0.054 C 
ENDROOT
BRANCH   9  11
ATOM     11  N   UNL     1       0.410  -2.267  27.647  0.00  0.00    -0.192 N 
ATOM     12  C   UNL     1       1.692  -2.281  28.244  0.00  0.00    +0.236 C 
ATOM     13  O   UNL     1       1.830  -2.286  29.487  0.00  0.00    -0.274 OA
ATOM     14  C   UNL     1       2.841  -2.287  27.274  0.00  0.00    +0.087 C 
ATOM     15  C   UNL     1       2.664  -1.064  26.414  0.00  0.00    +0.019 C 
ATOM     16  C   UNL     1       1.340  -0.941  25.754  0.00  0.00    +0.087 C 
ATOM     17  C   UNL     1       0.278  -1.803  26.290  0.00  0.00    +0.236 C 
ATOM     18  O   UNL     1      -0.730  -2.165  25.659  0.00  0.00    -0.274 OA
ENDBRANCH   9  11
TORSDOF 1
