REMARK  Name = =
REMARK  2 active torsions:
REMARK  status: ('A' for Active; 'I' for Inactive)
REMARK    1  A    between atoms: C_1  and  C_11
REMARK    2  A    between atoms: C_9  and  N_21
REMARK                            x       y       z     vdW  Elec       q    Type
REMARK                         _______ _______ _______ _____ _____    ______ ____
ROOT
ATOM      1  C   UNL     1     -10.307  -2.259  32.648  0.00  0.00    +0.086 C 
ATOM      2  N   UNL     1     -10.566  -3.070  33.728  0.00  0.00    -0.224 NA
ATOM      3  C   UNL     1     -11.817  -3.439  34.028  0.00  0.00    +0.199 C 
ATOM      4  N   UNL     1     -12.829  -3.017  33.274  0.00  0.00    -0.224 NA
ATOM      5  C   UNL     1     -12.628  -2.215  32.196  0.00  0.00    +0.089 C 
ATOM      6  C   UNL     1     -11.341  -1.823  31.867  0.00  0.00    +0.055 C 
ATOM      7  C   UNL     1     -11.192  -1.034  30.761  0.00  0.00    +0.103 C 
ATOM      8  N   UNL     1     -12.263  -0.637  30.003  0.00  0.00    -0.228 NA
ATOM      9  C   UNL     1     -13.524  -0.994  30.291  0.00  0.00    +0.145 C 
ATOM     10  C   UNL     1     -13.679  -1.796  31.408  0.00  0.00    +0.054 C 
ENDROOT
BRANCH   1  11
ATOM     11  C   UNL     1      -8.947  -1.890  32.344  0.00  0.00    +0.018 C 
ATOM     12  C   UNL     1      -8.552  -0.596  32.194  0.00  0.00    +0.001 C 
ATOM     13  C   UNL     1      -7.234  -0.242  31.880  0.00  0.00    +0.000 C 
ATOM     14  C   UNL     1      -6.302  -1.232  31.718  0.00  0.00    +0.000 C 
ATOM     15  C   UNL     1      -6.677  -2.564  31.865  0.00  0.00    +0.000 C 
ATOM     16  C   UNL     1      -7.988  -2.882  32.176  0.00  0.00    +0.001 C 
ATOM     17  C   UNL     1      -4.978  -0.937  31.405  0.00  0.00    +0.000 C 
ATOM     18  C   UNL     1      -4.603   0.382  31.257  0.00  0.00    +0.000 C 
ATOM     19  C   UNL     1      -5.557   1.359  31.425  0.00  0.00    +0.000 C 
ATOM     20  C   UNL     1      -6.867   1.082  31.734  0.00  0.00    +0.000 C 
ENDBRANCH   1  11
BRANCH   9  21
ATOM     21  N   UNL     1     -14.655  -0.599  29.523  0.00  0.00    -0.192 N 
ATOM     22  C   UNL     1     -15.339   0.634  29.748  0.00  0.00    +0.236 C 
ATOM     23  O   UNL     1     -14.727   1.574  30.311  0.00  0.00    -0.274 OA
ATOM     24  C   UNL     1     -16.752   0.838  29.336  0.00  0.00    +0.087 C 
ATOM     25  C   UNL     1     -17.413  -0.478  28.969  0.00  0.00    +0.019 C 
ATOM     26  C   UNL     1     -16.559  -1.276  27.988  0.00  0.00    +0.087 C 
ATOM     27  C   UNL     1     -15.178  -1.428  28.474  0.00  0.00    +0.236 C 
ATOM     28  O   UNL     1     -14.419  -2.294  27.978  0.00  0.00    -0.274 OA
ENDBRANCH   9  21
TORSDOF 2
