REMARK  Name = =
REMARK  9 active torsions:
REMARK  status: ('A' for Active; 'I' for Inactive)
REMARK    1  A    between atoms: C_1  and  C_10
REMARK    2  A    between atoms: C_6  and  S_21
REMARK    3  A    between atoms: C_7  and  N_25
REMARK    4  A    between atoms: N_8  and  N_16
REMARK    5  A    between atoms: C_10  and  C_13
REMARK    6  A    between atoms: N_16  and  O_19
REMARK    7  A    between atoms: C_17  and  O_20
REMARK    8  A    between atoms: S_21  and  O_24
REMARK    9  A    between atoms: N_25  and  N_26
REMARK                            x       y       z     vdW  Elec       q    Type
REMARK                         _______ _______ _______ _____ _____    ______ ____
ROOT
ATOM      1  C   UNL     1     -14.117  -8.591  21.398  0.00  0.00    +0.153 C 
ATOM      2  O   UNL     1     -14.562  -9.056  22.588  0.00  0.00    -0.345 OA
ATOM      3  C   UNL     1     -15.177 -10.230  22.708  0.00  0.00    +0.208 C 
ATOM      4  C   UNL     1     -15.044 -11.208  21.613  0.00  0.00    +0.204 C 
ATOM      5  O   UNL     1     -15.005 -12.394  21.878  0.00  0.00    -0.292 OA
ATOM      6  C   UNL     1     -14.965 -10.662  20.252  0.00  0.00    +0.210 C 
ATOM      7  C   UNL     1     -13.955  -9.539  20.281  0.00  0.00    +0.127 C 
ENDROOT
BRANCH   1  10
ATOM      8  N   UNL     1     -12.216  -6.630  23.607  0.00  0.00    -0.157 NA
ATOM      9  C   UNL     1     -13.180  -6.595  22.549  0.00  0.00    +0.119 C 
ATOM     10  C   UNL     1     -12.834  -7.792  21.701  0.00  0.00    +0.122 C 
ATOM     11  N   UNL     1     -11.919  -8.531  22.480  0.00  0.00    -0.194 NA
ATOM     12  C   UNL     1     -11.581  -7.889  23.529  0.00  0.00    +0.184 C 
BRANCH  10  13
ATOM     13  C   UNL     1     -12.229  -7.261  20.433  0.00  0.00    -0.001 C 
ATOM     14  C   UNL     1     -12.626  -6.120  19.900  0.00  0.00    +0.032 C 
ATOM     15  I   UNL     1     -11.759  -5.414  18.135  0.00  0.00    -0.042 I 
ENDBRANCH  10  13
BRANCH   8  16
ATOM     16  N   UNL     1     -11.986  -5.589  24.521  0.00  0.00    -0.070 N 
ATOM     17  C   UNL     1     -13.041  -4.834  25.078  0.00  0.00    +0.439 C 
ATOM     18  O   UNL     1     -12.796  -3.910  25.891  0.00  0.00    -0.223 OA
BRANCH  16  19
ATOM     19  O   UNL     1     -10.703  -5.289  24.892  0.00  0.00    -0.275 OA
ATOM     20  H   UNL     1     -10.087  -5.883  24.435  0.00  0.00    +0.243 HD
ENDBRANCH  16  19
BRANCH  17  21
ATOM     21  O   UNL     1     -14.378  -5.051  24.777  0.00  0.00    -0.464 OA
ATOM     22  H   UNL     1     -14.619  -5.728  24.176  0.00  0.00    +0.297 HD
ENDBRANCH  17  21
ENDBRANCH   8  16
ENDBRANCH   1  10
BRANCH   6  23
ATOM     23  S   UNL     1     -16.503  -9.948  19.695  0.00  0.00    -0.003 S 
ATOM     24  O   UNL     1     -16.971  -8.880  20.643  0.00  0.00    -0.072 OA
ATOM     25  O   UNL     1     -17.579 -10.979  19.584  0.00  0.00    -0.072 OA
BRANCH  23  26
ATOM     26  O   UNL     1     -16.202  -9.210  18.217  0.00  0.00    -0.271 OA
ATOM     27  H   UNL     1     -15.501  -8.548  18.323  0.00  0.00    +0.243 HD
ENDBRANCH  23  26
ENDBRANCH   6  23
BRANCH   7  28
ATOM     28  N   UNL     1     -12.655 -10.195  20.217  0.00  0.00    -0.246 NA
ATOM     29  H   UNL     1     -12.546 -10.849  20.992  0.00  0.00    +0.141 HD
BRANCH  28  30
ATOM     30  N   UNL     1     -12.648 -10.888  18.975  0.00  0.00    -0.270 NA
ATOM     31  H   UNL     1     -12.758 -10.220  18.212  0.00  0.00    +0.137 HD
ATOM     32  H   UNL     1     -13.418 -11.557  18.955  0.00  0.00    +0.137 HD
ENDBRANCH  28  30
ENDBRANCH   7  28
TORSDOF 9
