REMARK  Name = =
REMARK  3 active torsions:
REMARK  status: ('A' for Active; 'I' for Inactive)
REMARK    1  A    between atoms: C_7  and  N_11
REMARK    2  A    between atoms: N_11  and  C_12
REMARK    3  A    between atoms: C_12  and  O_14
REMARK                            x       y       z     vdW  Elec       q    Type
REMARK                         _______ _______ _______ _____ _____    ______ ____
ROOT
ATOM      1  C   UNL     1     -11.627 -42.695  29.084  0.00  0.00    +0.136 C 
ATOM      2  C   UNL     1     -10.933 -43.083  30.205  0.00  0.00    +0.025 C 
ATOM      3  C   UNL     1     -11.549 -43.840  31.311  0.00  0.00    +0.035 C 
ATOM      4  C   UNL     1     -13.041 -43.910  31.153  0.00  0.00    +0.052 C 
ATOM      5  C   UNL     1     -13.377 -44.214  29.719  0.00  0.00    +0.206 C 
ATOM      6  O   UNL     1     -12.987 -43.050  28.982  0.00  0.00    -0.476 OA
ATOM      7  C   UNL     1      -9.568 -42.741  30.328  0.00  0.00    +0.050 C 
ATOM      8  C   UNL     1      -8.976 -42.028  29.321  0.00  0.00    +0.015 C 
ATOM      9  C   UNL     1      -9.671 -41.621  28.167  0.00  0.00    +0.004 C 
ATOM     10  C   UNL     1     -10.993 -41.985  28.109  0.00  0.00    +0.037 C 
ENDROOT
BRANCH   7  11
ATOM     11  N   UNL     1      -8.876 -43.168  31.475  0.00  0.00    -0.279 N 
ATOM     12  H   UNL     1      -9.407 -43.611  32.175  0.00  0.00    +0.156 HD
BRANCH  11  13
ATOM     13  C   UNL     1      -7.507 -43.024  31.717  0.00  0.00    +0.230 C 
ATOM     14  S   UNL     1      -6.936 -42.886  33.279  0.00  0.00    +0.006 S 
BRANCH  13  15
ATOM     15  O   UNL     1      -6.530 -42.984  30.754  0.00  0.00    -0.490 OA
ATOM     16  H   UNL     1      -6.761 -43.055  29.849  0.00  0.00    +0.294 HD
ENDBRANCH  13  15
ENDBRANCH  11  13
ENDBRANCH   7  11
TORSDOF 3
