REMARK  Name = =
REMARK  8 active torsions:
REMARK  status: ('A' for Active; 'I' for Inactive)
REMARK    1  A    between atoms: N_1  and  C_8
REMARK    2  A    between atoms: N_1  and  C_12
REMARK    3  A    between atoms: N_1  and  C_17
REMARK    4  A    between atoms: C_12  and  O_14
REMARK    5  A    between atoms: O_14  and  S_15
REMARK    6  A    between atoms: C_17  and  C_18
REMARK    7  A    between atoms: C_18  and  O_21
REMARK    8  A    between atoms: N_19  and  O_20
REMARK                            x       y       z     vdW  Elec       q    Type
REMARK                         _______ _______ _______ _____ _____    ______ ____
ROOT
ATOM      1  N   UNL     1     -10.778 -42.561  31.359  0.00  0.00    -0.243 N 
ENDROOT
BRANCH   1   8
ATOM      2  C   UNL     1     -11.613 -42.919  27.748  0.00  0.00    +0.136 C 
ATOM      3  C   UNL     1     -11.715 -43.098  29.117  0.00  0.00    +0.026 C 
ATOM      4  C   UNL     1     -12.805 -43.947  29.632  0.00  0.00    +0.035 C 
ATOM      5  C   UNL     1     -13.164 -45.039  28.636  0.00  0.00    +0.052 C 
ATOM      6  C   UNL     1     -13.538 -44.352  27.319  0.00  0.00    +0.206 C 
ATOM      7  O   UNL     1     -12.532 -43.491  26.892  0.00  0.00    -0.476 OA
ATOM      8  C   UNL     1     -10.799 -42.523  29.956  0.00  0.00    +0.054 C 
ATOM      9  C   UNL     1      -9.771 -41.764  29.374  0.00  0.00    +0.015 C 
ATOM     10  C   UNL     1      -9.671 -41.587  28.016  0.00  0.00    +0.004 C 
ATOM     11  C   UNL     1     -10.588 -42.161  27.173  0.00  0.00    +0.037 C 
ENDBRANCH   1   8
BRANCH   1  12
ATOM     12  C   UNL     1      -9.746 -43.262  32.017  0.00  0.00    +0.251 C 
ATOM     13  S   UNL     1      -8.894 -42.650  33.262  0.00  0.00    +0.007 S 
BRANCH  12  14
ATOM     14  O   UNL     1      -9.423 -44.537  31.599  0.00  0.00    -0.388 OA
BRANCH  14  15
ATOM     15  S   UNL     1      -7.845 -45.205  31.747  0.00  0.00    +0.128 S 
ATOM     16  O   UNL     1      -6.825 -44.421  30.926  0.00  0.00    -0.124 OA
ATOM     17  H   UNL     1      -7.868 -46.493  31.310  0.00  0.00    +0.168 HD
ENDBRANCH  14  15
ENDBRANCH  12  14
ENDBRANCH   1  12
BRANCH   1  18
ATOM     18  C   UNL     1     -11.762 -41.852  32.114  0.00  0.00    +0.187 C 
BRANCH  18  19
ATOM     19  C   UNL     1     -12.685 -42.579  32.949  0.00  0.00    +0.254 C 
ATOM     20  N   UNL     1     -12.945 -42.169  34.140  0.00  0.00    -0.051 NA
BRANCH  20  21
ATOM     21  O   UNL     1     -12.336 -41.035  34.603  0.00  0.00    -0.407 OA
ATOM     22  H   UNL     1     -12.517 -40.726  35.469  0.00  0.00    +0.328 HD
ENDBRANCH  20  21
BRANCH  19  23
ATOM     23  O   UNL     1     -13.328 -43.715  32.540  0.00  0.00    -0.492 OA
ATOM     24  H   UNL     1     -13.175 -44.057  31.681  0.00  0.00    +0.294 HD
ENDBRANCH  19  23
ENDBRANCH  18  19
ENDBRANCH   1  18
TORSDOF 8
