REMARK  Name = =
REMARK  0 active torsions:
REMARK  status: ('A' for Active; 'I' for Inactive)
REMARK                            x       y       z     vdW  Elec       q    Type
REMARK                         _______ _______ _______ _____ _____    ______ ____
ROOT
ATOM      1  C   UNL     1      53.164 157.620  28.706  0.00  0.00    +0.116 C 
ATOM      2  C   UNL     1      52.096 156.638  28.278  0.00  0.00    +0.133 C 
ATOM      3  S   UNL     1      52.446 154.909  28.795  0.00  0.00    -0.119 S 
ATOM      4  C   UNL     1      50.940 154.699  29.824  0.00  0.00    +0.081 C 
ATOM      5  C   UNL     1      50.234 156.013  29.623  0.00  0.00    +0.106 C 
ATOM      6  N   UNL     1      51.247 157.023  29.418  0.00  0.00    -0.271 N 
ATOM      7  C   UNL     1      52.067 158.182  29.520  0.00  0.00    +0.229 C 
ATOM      8  O   UNL     1      51.896 159.280  30.102  0.00  0.00    -0.275 OA
ENDROOT
TORSDOF 0
