REMARK  Name = =
REMARK  2 active torsions:
REMARK  status: ('A' for Active; 'I' for Inactive)
REMARK    1  A    between atoms: C_1  and  C_9
REMARK    2  A    between atoms: C_7  and  O_17
REMARK                            x       y       z     vdW  Elec       q    Type
REMARK                         _______ _______ _______ _____ _____    ______ ____
ROOT
ATOM      1  C   UNL     1      50.961 157.410  28.812  0.00  0.00    +0.015 C 
ATOM      2  C   UNL     1      52.383 157.639  28.333  0.00  0.00    +0.022 C 
ATOM      3  C   UNL     1      52.784 156.438  27.507  0.00  0.00    +0.097 C 
ATOM      4  N   UNL     1      52.580 155.262  28.351  0.00  0.00    -0.246 N 
ATOM      5  C   UNL     1      52.126 155.387  29.723  0.00  0.00    +0.097 C 
ATOM      6  C   UNL     1      50.906 156.278  29.821  0.00  0.00    +0.022 C 
ATOM      7  C   UNL     1      52.839 153.994  27.794  0.00  0.00    +0.402 C 
ATOM      8  O   UNL     1      53.228 153.892  26.613  0.00  0.00    -0.226 OA
ENDROOT
BRANCH   1   9
ATOM      9  C   UNL     1      50.407 158.681  29.375  0.00  0.00    +0.105 C 
ATOM     10  C   UNL     1      49.469 158.445  30.556  0.00  0.00    +0.132 C 
ATOM     11  S   UNL     1      47.906 159.391  30.402  0.00  0.00    -0.119 S 
ATOM     12  C   UNL     1      48.289 160.658  31.680  0.00  0.00    +0.081 C 
ATOM     13  C   UNL     1      49.500 159.968  32.326  0.00  0.00    +0.106 C 
ATOM     14  N   UNL     1      50.277 159.507  31.199  0.00  0.00    -0.271 N 
ATOM     15  C   UNL     1      51.354 159.421  30.284  0.00  0.00    +0.228 C 
ATOM     16  O   UNL     1      52.555 159.733  30.122  0.00  0.00    -0.275 OA
ENDBRANCH   1   9
BRANCH   7  17
ATOM     17  O   UNL     1      52.654 152.866  28.567  0.00  0.00    -0.466 OA
ATOM     18  H   UNL     1      52.362 152.948  29.453  0.00  0.00    +0.297 HD
ENDBRANCH   7  17
TORSDOF 2
