REMARK  Name = =
REMARK  5 active torsions:
REMARK  status: ('A' for Active; 'I' for Inactive)
REMARK    1  A    between atoms: C_1  and  C_9
REMARK    2  A    between atoms: C_1  and  O_21
REMARK    3  A    between atoms: C_7  and  O_20
REMARK    4  A    between atoms: C_9  and  C_17
REMARK    5  A    between atoms: O_21  and  C_22
REMARK                            x       y       z     vdW  Elec       q    Type
REMARK                         _______ _______ _______ _____ _____    ______ ____
ROOT
ATOM      1  C   UNL     1      51.248 157.713  29.111  0.00  0.00    +0.150 C 
ATOM      2  C   UNL     1      50.422 156.472  28.751  0.00  0.00    +0.063 C 
ATOM      3  C   UNL     1      48.994 156.643  29.231  0.00  0.00    +0.100 C 
ATOM      4  N   UNL     1      48.922 157.569  30.343  0.00  0.00    -0.246 N 
ATOM      5  C   UNL     1      49.994 157.525  31.310  0.00  0.00    +0.100 C 
ATOM      6  C   UNL     1      51.298 157.713  30.636  0.00  0.00    +0.063 C 
ATOM      7  C   UNL     1      47.844 158.466  30.464  0.00  0.00    +0.402 C 
ATOM      8  O   UNL     1      47.744 159.280  31.416  0.00  0.00    -0.226 OA
ENDROOT
BRANCH   1   9
ATOM      9  C   UNL     1      52.671 157.551  28.667  0.00  0.00    +0.148 C 
ATOM     10  C   UNL     1      52.988 157.145  27.297  0.00  0.00    +0.139 C 
ATOM     11  S   UNL     1      51.648 156.686  26.171  0.00  0.00    -0.118 S 
ATOM     12  C   UNL     1      52.183 154.951  25.875  0.00  0.00    +0.081 C 
ATOM     13  C   UNL     1      53.524 154.966  26.615  0.00  0.00    +0.106 C 
ATOM     14  N   UNL     1      53.351 155.822  27.756  0.00  0.00    -0.270 N 
ATOM     15  C   UNL     1      53.292 156.260  29.091  0.00  0.00    +0.235 C 
ATOM     16  O   UNL     1      53.598 155.845  30.244  0.00  0.00    -0.274 OA
BRANCH   9  17
ATOM     17  C   UNL     1      53.588 158.645  29.113  0.00  0.00    -0.000 C 
ATOM     18  C   UNL     1      54.905 158.523  29.039  0.00  0.00    +0.064 C 
ATOM     19 CL   UNL     1      55.951 159.823  29.570  0.00  0.00    -0.082 Cl
ENDBRANCH   9  17
ENDBRANCH   1   9
BRANCH   7  20
ATOM     20  O   UNL     1      46.853 158.455  29.500  0.00  0.00    -0.466 OA
ATOM     21  H   UNL     1      46.906 157.857  28.781  0.00  0.00    +0.297 HD
ENDBRANCH   7  20
BRANCH   1  22
ATOM     22  O   UNL     1      50.614 158.843  28.691  0.00  0.00    -0.482 OA
BRANCH  22  23
ATOM     23  C   UNL     1      50.993 160.028  29.256  0.00  0.00    +0.138 C 
ATOM     24  C   UNL     1      49.823 160.859  29.573  0.00  0.00    +0.035 C 
ATOM     25  C   UNL     1      49.602 161.374  30.768  0.00  0.00    +0.008 C 
ATOM     26  C   UNL     1      50.522 161.152  31.887  0.00  0.00    +0.148 C 
ATOM     27  N   UNL     1      50.048 161.769  32.908  0.00  0.00    -0.262 NA
ATOM     28  C   UNL     1      48.827 162.431  32.588  0.00  0.00    +0.094 C 
ATOM     29  C   UNL     1      48.533 162.216  31.325  0.00  0.00    +0.018 C 
ATOM     30  C   UNL     1      51.692 160.333  31.608  0.00  0.00    +0.005 C 
ATOM     31  C   UNL     1      51.902 159.823  30.407  0.00  0.00    +0.035 C 
ENDBRANCH  22  23
ENDBRANCH   1  22
TORSDOF 5
