REMARK  Name = =
REMARK  5 active torsions:
REMARK  status: ('A' for Active; 'I' for Inactive)
REMARK    1  A    between atoms: C_1  and  C_9
REMARK    2  A    between atoms: C_1  and  O_21
REMARK    3  A    between atoms: C_7  and  O_20
REMARK    4  A    between atoms: C_9  and  C_17
REMARK    5  A    between atoms: O_21  and  C_22
REMARK                            x       y       z     vdW  Elec       q    Type
REMARK                         _______ _______ _______ _____ _____    ______ ____
ROOT
ATOM      1  C   UNL     1      50.805 159.526  30.235  0.00  0.00    +0.145 C 
ATOM      2  C   UNL     1      51.301 160.438  29.126  0.00  0.00    +0.062 C 
ATOM      3  C   UNL     1      52.058 161.611  29.647  0.00  0.00    +0.100 C 
ATOM      4  N   UNL     1      52.976 161.208  30.667  0.00  0.00    -0.246 N 
ATOM      5  C   UNL     1      53.146 159.822  31.000  0.00  0.00    +0.100 C 
ATOM      6  C   UNL     1      51.836 159.133  31.217  0.00  0.00    +0.062 C 
ATOM      7  C   UNL     1      53.765 162.163  31.394  0.00  0.00    +0.402 C 
ATOM      8  O   UNL     1      53.634 163.368  31.117  0.00  0.00    -0.226 OA
ENDROOT
BRANCH   1   9
ATOM      9  C   UNL     1      49.670 160.325  30.918  0.00  0.00    +0.118 C 
ATOM     10  C   UNL     1      48.851 159.390  31.841  0.00  0.00    +0.137 C 
ATOM     11  S   UNL     1      47.213 159.087  31.099  0.00  0.00    -0.121 S 
ATOM     12  C   UNL     1      46.294 160.438  31.947  0.00  0.00    +0.076 C 
ATOM     13  C   UNL     1      47.273 160.690  33.102  0.00  0.00    +0.087 C 
ATOM     14  N   UNL     1      48.586 160.624  32.554  0.00  0.00    -0.239 NA
ATOM     15  C   UNL     1      49.960 160.968  32.186  0.00  0.00    +0.204 C 
ATOM     16  O   UNL     1      50.825 161.574  32.866  0.00  0.00    -0.206 OA
BRANCH   9  17
ATOM     17  C   UNL     1      48.876 161.140  30.004  0.00  0.00    -0.005 C 
ATOM     18  C   UNL     1      48.685 160.899  28.712  0.00  0.00    +0.064 C 
ATOM     19 CL   UNL     1      47.699 161.982  27.750  0.00  0.00    -0.082 Cl
ENDBRANCH   9  17
ENDBRANCH   1   9
BRANCH   7  20
ATOM     20  O   UNL     1      54.645 161.770  32.371  0.00  0.00    -0.466 OA
ATOM     21  H   UNL     1      54.741 160.861  32.577  0.00  0.00    +0.297 HD
ENDBRANCH   7  20
BRANCH   1  22
ATOM     22  O   UNL     1      50.162 158.477  29.684  0.00  0.00    -0.482 OA
BRANCH  22  23
ATOM     23  C   UNL     1      50.550 157.265  29.446  0.00  0.00    +0.138 C 
ATOM     24  C   UNL     1      50.971 156.997  28.037  0.00  0.00    +0.035 C 
ATOM     25  C   UNL     1      51.815 156.076  27.698  0.00  0.00    +0.010 C 
ATOM     26  C   UNL     1      52.413 155.229  28.705  0.00  0.00    +0.149 C 
ATOM     27  N   UNL     1      53.215 154.401  28.090  0.00  0.00    -0.249 NA
ATOM     28  C   UNL     1      53.212 154.623  26.694  0.00  0.00    +0.133 C 
ATOM     29  C   UNL     1      52.393 155.612  26.417  0.00  0.00    +0.032 C 
ATOM     30  C   UNL     1      52.051 155.429  30.078  0.00  0.00    +0.005 C 
ATOM     31  C   UNL     1      51.173 156.389  30.407  0.00  0.00    +0.035 C 
ATOM     32  N   UNL     1      53.977 153.893  25.733  0.00  0.00    -0.235 N 
ATOM     33  C   UNL     1      54.613 154.532  24.661  0.00  0.00    +0.308 C 
ATOM     34  O   UNL     1      55.281 153.877  23.827  0.00  0.00    -0.265 OA
ATOM     35  C   UNL     1      54.086 152.451  25.889  0.00  0.00    +0.122 C 
ENDBRANCH  22  23
ENDBRANCH   1  22
TORSDOF 5
