REMARK  Name = =
REMARK  2 active torsions:
REMARK  status: ('A' for Active; 'I' for Inactive)
REMARK    1  A    between atoms: S_1  and  N_9
REMARK    2  A    between atoms: C_2  and  N_15
REMARK                            x       y       z     vdW  Elec       q    Type
REMARK                         _______ _______ _______ _____ _____    ______ ____
ROOT
ATOM      1  S   UNL     1     -16.189 -42.110  26.841  0.00  0.00    -0.014 S 
ATOM      2  C   UNL     1     -17.560 -42.788  27.766  0.00  0.00    +0.238 C 
ATOM      3  C   UNL     1     -17.062 -42.537  29.140  0.00  0.00    +0.260 C 
ATOM      4  O   UNL     1     -17.820 -42.020  30.030  0.00  0.00    -0.272 OA
ATOM      5  N   UNL     1     -15.721 -42.942  29.262  0.00  0.00    -0.244 N 
ATOM      6  C   UNL     1     -14.926 -42.585  28.187  0.00  0.00    +0.285 C 
ATOM      7  O   UNL     1     -13.728 -42.543  28.017  0.00  0.00    -0.262 OA
ATOM      8  H   UNL     1     -15.378 -43.435  30.042  0.00  0.00    +0.158 HD
ENDROOT
BRANCH   1   9
ATOM      9  N   UNL     1     -15.927 -42.149  25.367  0.00  0.00    -0.225 NA
ATOM     10  C   UNL     1     -14.576 -42.261  24.902  0.00  0.00    +0.100 C 
ATOM     11  C   UNL     1     -14.269 -43.608  24.297  0.00  0.00    +0.087 C 
ATOM     12  N   UNL     1     -15.091 -43.885  23.134  0.00  0.00    -0.295 NA
ATOM     13  C   UNL     1     -16.154 -42.931  23.047  0.00  0.00    +0.087 C 
ATOM     14  C   UNL     1     -16.839 -42.689  24.382  0.00  0.00    +0.100 C 
ATOM     15  H   UNL     1     -15.484 -44.823  23.214  0.00  0.00    +0.123 HD
ENDBRANCH   1   9
BRANCH   2  16
ATOM     16  N   UNL     1     -18.772 -42.120  27.462  0.00  0.00    -0.125 N 
ATOM     17  N   UNL     1     -18.946 -40.934  26.909  0.00  0.00    -0.130 NA
ATOM     18  C   UNL     1     -20.270 -40.679  26.799  0.00  0.00    +0.304 C 
ATOM     19  O   UNL     1     -20.876 -41.719  27.290  0.00  0.00    -0.385 OA
ATOM     20  C   UNL     1     -20.010 -42.592  27.693  0.00  0.00    +0.431 C 
ATOM     21  O   UNL     1     -20.305 -43.694  28.210  0.00  0.00    -0.224 OA
ENDBRANCH   2  16
TORSDOF 2
REMARK  Name = =
REMARK  2 active torsions:
REMARK  status: ('A' for Active; 'I' for Inactive)
REMARK    1  A    between atoms: S_1  and  N_9
REMARK    2  A    between atoms: C_2  and  N_15
REMARK                            x       y       z     vdW  Elec       q    Type
REMARK                         _______ _______ _______ _____ _____    ______ ____
ROOT
ATOM      1  H   UNK     1     -16.393 -40.322  27.351  0.00  0.00    +0.000 HD
ENDROOT
TORSDOF 0
