MODEL 1
REMARK VINA RESULT:    -6.354      0.000      0.000
REMARK INTER + INTRA:          -7.164
REMARK INTER:                  -8.582
REMARK INTRA:                   1.418
REMARK UNBOUND:                 1.418
REMARK  Name = =
REMARK  7 active torsions:
REMARK  status: ('A' for Active; 'I' for Inactive)
REMARK    1  A    between atoms: C_1  and  C_9
REMARK    2  A    between atoms: C_1  and  O_24
REMARK    3  A    between atoms: C_7  and  O_23
REMARK    4  A    between atoms: C_9  and  C_17
REMARK    5  A    between atoms: C_17  and  S_20
REMARK    6  A    between atoms: S_20  and  O_22
REMARK    7  A    between atoms: O_24  and  C_25
REMARK                            x       y       z     vdW  Elec       q    Type
REMARK                         _______ _______ _______ _____ _____    ______ ____
ROOT
ATOM      1  C   UNL     1      60.410 162.161  40.631  0.00  0.00    +0.169 C 
ATOM      2  C   UNL     1      59.213 162.538  39.861  0.00  0.00    +0.067 C 
ATOM      3  C   UNL     1      57.884 162.514  40.496  0.00  0.00    +0.106 C 
ATOM      4  N   UNL     1      57.886 161.723  41.678  0.00  0.00    -0.224 N 
ATOM      5  C   UNL     1      58.908 161.955  42.644  0.00  0.00    +0.070 C 
ATOM      6  C   UNL     1      60.304 162.046  42.094  0.00  0.00    +0.030 C 
ATOM      7  C   UNL     1      56.897 160.749  41.901  0.00  0.00    +0.405 C 
ATOM      8  O   UNL     1      55.963 160.547  41.053  0.00  0.00    -0.226 OA
ENDROOT
BRANCH   1   9
ATOM      9  C   UNL     1      60.917 160.792  40.125  0.00  0.00    +0.168 C 
ATOM     10  C   UNL     1      62.218 160.359  40.683  0.00  0.00    +0.140 C 
ATOM     11  S   UNL     1      63.154 161.523  41.708  0.00  0.00    -0.118 S 
ATOM     12  C   UNL     1      64.633 161.665  40.624  0.00  0.00    +0.081 C 
ATOM     13  C   UNL     1      64.287 160.569  39.603  0.00  0.00    +0.106 C 
ATOM     14  N   UNL     1      62.864 160.665  39.403  0.00  0.00    -0.270 N 
ATOM     15  C   UNL     1      61.601 160.855  38.813  0.00  0.00    +0.237 C 
ATOM     16  O   UNL     1      61.211 161.016  37.615  0.00  0.00    -0.274 OA
BRANCH   9  17
ATOM     17  C   UNL     1      59.935 159.688  40.160  0.00  0.00    +0.116 C 
ATOM     18  C   UNL     1      59.784 158.958  41.279  0.00  0.00    +0.083 C 
ATOM     19 CL   UNL     1      58.678 157.641  41.471  0.00  0.00    -0.080 Cl
BRANCH  17  20
ATOM     20  S   UNL     1      58.886 159.191  38.834  0.00  0.00    +0.026 S 
ATOM     21  O   UNL     1      59.228 157.876  38.236  0.00  0.00    -0.162 OA
BRANCH  20  22
ATOM     22  O   UNL     1      58.465 160.401  37.774  0.00  0.00    -0.265 OA
ATOM     23  H   UNL     1      57.663 160.145  37.293  0.00  0.00    +0.243 HD
ENDBRANCH  20  22
ENDBRANCH  17  20
ENDBRANCH   9  17
ENDBRANCH   1   9
BRANCH   7  24
ATOM     24  O   UNL     1      56.847 159.939  43.032  0.00  0.00    -0.466 OA
ATOM     25  H   UNL     1      57.596 159.432  43.278  0.00  0.00    +0.297 HD
ENDBRANCH   7  24
BRANCH   1  26
ATOM     26  O   UNL     1      61.435 163.029  40.302  0.00  0.00    -0.481 OA
BRANCH  26  27
ATOM     27  C   UNL     1      61.252 164.122  39.628  0.00  0.00    +0.121 C 
ATOM     28  C   UNL     1      61.972 164.282  38.378  0.00  0.00    +0.092 C 
ATOM     29  C   UNL     1      61.985 165.373  37.634  0.00  0.00    +0.006 C 
ATOM     30  C   UNL     1      61.225 166.535  38.077  0.00  0.00    +0.079 C 
ATOM     31  N   UNL     1      61.404 167.450  37.183  0.00  0.00    -0.231 NA
ATOM     32  C   UNL     1      62.257 166.978  36.138  0.00  0.00    +0.137 C 
ATOM     33  C   UNL     1      62.631 165.734  36.366  0.00  0.00    +0.032 C 
ATOM     34  C   UNL     1      60.497 166.391  39.329  0.00  0.00    +0.022 C 
ATOM     35  C   UNL     1      60.517 165.276  40.035  0.00  0.00    +0.034 C 
ATOM     36  N   UNL     1      62.656 167.722  35.007  0.00  0.00    -0.235 N 
ATOM     37  C   UNL     1      63.999 167.706  34.558  0.00  0.00    +0.308 C 
ATOM     38  O   UNL     1      64.312 168.381  33.547  0.00  0.00    -0.265 OA
ATOM     39  C   UNL     1      61.643 168.500  34.322  0.00  0.00    +0.122 C 
ENDBRANCH  26  27
ENDBRANCH   1  26
TORSDOF 7
ENDMDL
