REMARK  Name = =
REMARK  7 active torsions:
REMARK  status: ('A' for Active; 'I' for Inactive)
REMARK    1  A    between atoms: C_1  and  C_9
REMARK    2  A    between atoms: C_1  and  O_24
REMARK    3  A    between atoms: C_7  and  O_23
REMARK    4  A    between atoms: C_9  and  C_17
REMARK    5  A    between atoms: C_17  and  S_20
REMARK    6  A    between atoms: S_20  and  O_22
REMARK    7  A    between atoms: O_24  and  C_25
REMARK                            x       y       z     vdW  Elec       q    Type
REMARK                         _______ _______ _______ _____ _____    ______ ____
ROOT
ATOM      1  C   UNL     1      52.481 155.562  27.246  0.00  0.00    +0.169 C 
ATOM      2  C   UNL     1      53.743 156.308  27.385  0.00  0.00    +0.067 C 
ATOM      3  C   UNL     1      54.458 156.786  26.189  0.00  0.00    +0.106 C 
ATOM      4  N   UNL     1      54.035 156.097  25.019  0.00  0.00    -0.224 N 
ATOM      5  C   UNL     1      52.636 155.990  24.767  0.00  0.00    +0.070 C 
ATOM      6  C   UNL     1      51.803 155.554  25.940  0.00  0.00    +0.030 C 
ATOM      7  C   UNL     1      54.969 155.550  24.122  0.00  0.00    +0.405 C 
ATOM      8  O   UNL     1      56.225 155.658  24.325  0.00  0.00    -0.226 OA
ENDROOT
BRANCH   1   9
ATOM      9  C   UNL     1      52.735 154.082  27.611  0.00  0.00    +0.168 C 
ATOM     10  C   UNL     1      51.572 153.370  28.188  0.00  0.00    +0.140 C 
ATOM     11  S   UNL     1      50.082 154.320  28.587  0.00  0.00    -0.118 S 
ATOM     12  C   UNL     1      50.084 154.022  30.402  0.00  0.00    +0.081 C 
ATOM     13  C   UNL     1      51.221 152.990  30.474  0.00  0.00    +0.106 C 
ATOM     14  N   UNL     1      52.200 153.428  29.512  0.00  0.00    -0.270 N 
ATOM     15  C   UNL     1      53.390 153.894  28.925  0.00  0.00    +0.237 C 
ATOM     16  O   UNL     1      54.568 154.078  29.364  0.00  0.00    -0.274 OA
BRANCH   9  17
ATOM     17  C   UNL     1      53.389 153.264  26.568  0.00  0.00    +0.116 C 
ATOM     18  C   UNL     1      52.650 152.682  25.609  0.00  0.00    +0.083 C 
ATOM     19 CL   UNL     1      53.272 151.701  24.326  0.00  0.00    -0.080 Cl
BRANCH  17  20
ATOM     20  S   UNL     1      55.117 152.947  26.433  0.00  0.00    +0.026 S 
ATOM     21  O   UNL     1      55.591 152.691  25.049  0.00  0.00    -0.162 OA
BRANCH  20  22
ATOM     22  O   UNL     1      55.755 151.980  27.626  0.00  0.00    -0.265 OA
ATOM     23  H   UNL     1      56.705 151.860  27.472  0.00  0.00    +0.243 HD
ENDBRANCH  20  22
ENDBRANCH  17  20
ENDBRANCH   9  17
ENDBRANCH   1   9
BRANCH   7  24
ATOM     24  O   UNL     1      54.620 154.859  22.965  0.00  0.00    -0.466 OA
ATOM     25  H   UNL     1      53.717 154.738  22.746  0.00  0.00    +0.297 HD
ENDBRANCH   7  24
BRANCH   1  26
ATOM     26  O   UNL     1      51.606 155.993  28.226  0.00  0.00    -0.481 OA
BRANCH  26  27
ATOM     27  C   UNL     1      51.795 157.070  28.924  0.00  0.00    +0.121 C 
ATOM     28  C   UNL     1      50.649 157.660  29.592  0.00  0.00    +0.092 C 
ATOM     29  C   UNL     1      50.647 158.809  30.243  0.00  0.00    +0.006 C 
ATOM     30  C   UNL     1      51.884 159.577  30.315  0.00  0.00    +0.079 C 
ATOM     31  N   UNL     1      51.613 160.640  30.998  0.00  0.00    -0.231 NA
ATOM     32  C   UNL     1      50.243 160.647  31.402  0.00  0.00    +0.137 C 
ATOM     33  C   UNL     1      49.622 159.566  30.971  0.00  0.00    +0.032 C 
ATOM     34  C   UNL     1      53.043 158.999  29.652  0.00  0.00    +0.022 C 
ATOM     35  C   UNL     1      52.990 157.844  29.014  0.00  0.00    +0.034 C 
ATOM     36  N   UNL     1      49.617 161.661  32.160  0.00  0.00    -0.235 N 
ATOM     37  C   UNL     1      48.334 162.148  31.812  0.00  0.00    +0.308 C 
ATOM     38  O   UNL     1      47.813 163.049  32.513  0.00  0.00    -0.265 OA
ATOM     39  C   UNL     1      50.334 162.182  33.306  0.00  0.00    +0.122 C 
ENDBRANCH  26  27
ENDBRANCH   1  26
TORSDOF 7
