REMARK  Name = =
REMARK  1 active torsions:
REMARK  status: ('A' for Active; 'I' for Inactive)
REMARK    1  A    between atoms: C_4  and  O_11
REMARK                            x       y       z     vdW  Elec       q    Type
REMARK                         _______ _______ _______ _____ _____    ______ ____
ROOT
ATOM      1  C   UNL     1      -3.982  -3.937  30.585  0.00  0.00    +0.135 C 
ATOM      2  C   UNL     1      -3.574  -5.010  31.347  0.00  0.00    +0.015 C 
ATOM      3  C   UNL     1      -2.461  -5.744  31.005  0.00  0.00    +0.035 C 
ATOM      4  C   UNL     1      -1.697  -5.444  29.883  0.00  0.00    +0.134 C 
ATOM      5  C   UNL     1      -2.102  -4.371  29.118  0.00  0.00    +0.040 C 
ATOM      6  C   UNL     1      -3.218  -3.640  29.467  0.00  0.00    +0.040 C 
ATOM      7  C   UNL     1      -4.401  -5.313  32.539  0.00  0.00    +0.033 C 
ATOM      8  C   UNL     1      -4.679  -3.956  33.202  0.00  0.00    +0.052 C 
ATOM      9  C   UNL     1      -5.561  -3.132  32.287  0.00  0.00    +0.206 C 
ATOM     10  O   UNL     1      -5.109  -3.198  30.936  0.00  0.00    -0.476 OA
ENDROOT
BRANCH   4  11
ATOM     11  O   UNL     1      -0.571  -6.213  29.567  0.00  0.00    -0.506 OA
ATOM     12  H   UNL     1      -0.329  -6.935  30.113  0.00  0.00    +0.292 HD
ENDBRANCH   4  11
TORSDOF 1
