REMARK  Name = =
REMARK  1 active torsions:
REMARK  status: ('A' for Active; 'I' for Inactive)
REMARK    1  A    between atoms: C_4  and  O_17
REMARK                            x       y       z     vdW  Elec       q    Type
REMARK                         _______ _______ _______ _____ _____    ______ ____
ROOT
ATOM      1  C   UNL     1      -2.453  -4.920  30.662  0.00  0.00    -0.016 C 
ATOM      2  C   UNL     1      -3.294  -4.164  29.943  0.00  0.00    -0.022 C 
ATOM      3  C   UNL     1      -2.755  -3.273  29.004  0.00  0.00    +0.032 C 
ATOM      4  C   UNL     1      -1.402  -3.204  28.855  0.00  0.00    +0.133 C 
ATOM      5  C   UNL     1      -0.533  -3.980  29.594  0.00  0.00    +0.036 C 
ATOM      6  C   UNL     1      -1.089  -4.846  30.508  0.00  0.00    -0.001 C 
ATOM      7  C   UNL     1      -4.546  -4.696  30.556  0.00  0.00    +0.040 C 
ATOM      8  C   UNL     1      -3.616  -5.546  31.369  0.00  0.00    +0.094 C 
ATOM      9  C   UNL     1      -3.619  -6.967  31.091  0.00  0.00    +0.001 C 
ATOM     10  C   UNL     1      -3.666  -7.872  32.028  0.00  0.00    +0.058 C 
ATOM     11  N   UNL     1      -3.719  -7.563  33.416  0.00  0.00    -0.309 N 
ATOM     12  C   UNL     1      -3.716  -6.166  33.709  0.00  0.00    +0.095 C 
ATOM     13  C   UNL     1      -3.670  -5.243  32.797  0.00  0.00    +0.138 C 
ATOM     14  C   UNL     1      -5.195  -3.591  31.380  0.00  0.00    +0.053 C 
ATOM     15  C   UNL     1      -4.109  -2.901  32.193  0.00  0.00    +0.205 C 
ATOM     16  O   UNL     1      -3.669  -3.874  33.144  0.00  0.00    -0.478 OA
ATOM     17  H   UNL     1      -3.755  -8.255  34.116  0.00  0.00    +0.152 HD
ENDROOT
BRANCH   4  18
ATOM     18  O   UNL     1      -0.799  -2.333  27.933  0.00  0.00    -0.506 OA
ATOM     19  H   UNL     1      -1.330  -1.777  27.398  0.00  0.00    +0.292 HD
ENDBRANCH   4  18
TORSDOF 1
