REMARK  Name = =
REMARK  3 active torsions:
REMARK  status: ('A' for Active; 'I' for Inactive)
REMARK    1  A    between atoms: C_4  and  O_17
REMARK    2  A    between atoms: C_6  and  O_18
REMARK    3  A    between atoms: O_18  and  S_19
REMARK                            x       y       z     vdW  Elec       q    Type
REMARK                         _______ _______ _______ _____ _____    ______ ____
ROOT
ATOM      1  C   UNL     1      -1.681  -5.280  29.960  0.00  0.00    +0.021 C 
ATOM      2  C   UNL     1      -1.721  -3.956  30.328  0.00  0.00    -0.019 C 
ATOM      3  C   UNL     1      -1.224  -3.028  29.435  0.00  0.00    +0.032 C 
ATOM      4  C   UNL     1      -0.694  -3.357  28.205  0.00  0.00    +0.136 C 
ATOM      5  C   UNL     1      -0.675  -4.699  27.880  0.00  0.00    +0.076 C 
ATOM      6  C   UNL     1      -1.164  -5.662  28.746  0.00  0.00    +0.171 C 
ATOM      7  C   UNL     1      -2.352  -4.200  31.651  0.00  0.00    +0.040 C 
ATOM      8  C   UNL     1      -2.313  -5.652  31.271  0.00  0.00    +0.097 C 
ATOM      9  C   UNL     1      -1.480  -6.521  32.096  0.00  0.00    +0.001 C 
ATOM     10  C   UNL     1      -1.875  -7.682  32.568  0.00  0.00    +0.058 C 
ATOM     11  N   UNL     1      -3.180  -8.159  32.286  0.00  0.00    -0.309 N 
ATOM     12  C   UNL     1      -4.038  -7.354  31.487  0.00  0.00    +0.095 C 
ATOM     13  C   UNL     1      -3.660  -6.190  31.006  0.00  0.00    +0.138 C 
ATOM     14  C   UNL     1      -3.768  -3.648  31.628  0.00  0.00    +0.053 C 
ATOM     15  C   UNL     1      -4.415  -3.974  30.278  0.00  0.00    +0.205 C 
ATOM     16  O   UNL     1      -4.512  -5.414  30.232  0.00  0.00    -0.478 OA
ATOM     17  H   UNL     1      -3.485  -9.027  32.635  0.00  0.00    +0.152 HD
ENDROOT
BRANCH   4  18
ATOM     18  O   UNL     1      -0.198  -2.384  27.323  0.00  0.00    -0.505 OA
ATOM     19  H   UNL     1      -0.220  -1.479  27.563  0.00  0.00    +0.292 HD
ENDBRANCH   4  18
BRANCH   6  20
ATOM     20  O   UNL     1      -1.142  -7.006  28.414  0.00  0.00    -0.363 OA
BRANCH  20  21
ATOM     21  S   UNL     1       0.095  -8.034  28.992  0.00  0.00    +0.009 S 
ATOM     22  O   UNL     1       0.592  -8.819  27.810  0.00  0.00    -0.065 OA
ATOM     23  O   UNL     1       1.231  -7.262  29.570  0.00  0.00    -0.065 OA
ATOM     24  H   UNL     1      -0.398  -8.832  29.976  0.00  0.00    +0.227 HD
ENDBRANCH  20  21
ENDBRANCH   6  20
TORSDOF 3
