REMARK  Name = =
REMARK  5 active torsions:
REMARK  status: ('A' for Active; 'I' for Inactive)
REMARK    1  A    between atoms: C_4  and  O_17
REMARK    2  A    between atoms: C_6  and  O_21
REMARK    3  A    between atoms: C_10  and  N_18
REMARK    4  A    between atoms: N_18  and  C_19
REMARK    5  A    between atoms: O_21  and  S_22
REMARK                            x       y       z     vdW  Elec       q    Type
REMARK                         _______ _______ _______ _____ _____    ______ ____
ROOT
ATOM      1  C   UNL     1       0.265  -5.981  30.697  0.00  0.00    +0.021 C 
ATOM      2  C   UNL     1       1.438  -5.765  31.325  0.00  0.00    -0.019 C 
ATOM      3  C   UNL     1       1.846  -6.519  32.396  0.00  0.00    +0.032 C 
ATOM      4  C   UNL     1       1.010  -7.554  32.836  0.00  0.00    +0.136 C 
ATOM      5  C   UNL     1      -0.196  -7.755  32.157  0.00  0.00    +0.076 C 
ATOM      6  C   UNL     1      -0.579  -6.961  31.076  0.00  0.00    +0.171 C 
ATOM      7  C   UNL     1       1.867  -4.706  30.331  0.00  0.00    +0.040 C 
ATOM      8  C   UNL     1       0.521  -4.753  29.802  0.00  0.00    +0.098 C 
ATOM      9  C   UNL     1      -0.503  -3.754  30.223  0.00  0.00    +0.016 C 
ATOM     10  C   UNL     1      -1.514  -3.433  29.457  0.00  0.00    +0.106 C 
ATOM     11  N   UNL     1      -1.633  -3.907  28.131  0.00  0.00    -0.298 N 
ATOM     12  C   UNL     1      -0.605  -4.762  27.659  0.00  0.00    +0.096 C 
ATOM     13  C   UNL     1       0.403  -5.149  28.383  0.00  0.00    +0.138 C 
ATOM     14  C   UNL     1       3.026  -5.210  29.544  0.00  0.00    +0.053 C 
ATOM     15  C   UNL     1       2.804  -5.346  28.092  0.00  0.00    +0.205 C 
ATOM     16  O   UNL     1       1.474  -5.944  27.897  0.00  0.00    -0.478 OA
ATOM     17  H   UNL     1      -2.395  -3.655  27.561  0.00  0.00    +0.153 HD
ENDROOT
BRANCH   4  18
ATOM     18  O   UNL     1       1.391  -8.350  33.921  0.00  0.00    -0.505 OA
ATOM     19  H   UNL     1       2.206  -8.191  34.356  0.00  0.00    +0.292 HD
ENDBRANCH   4  18
BRANCH  10  20
ATOM     20  N   UNL     1      -2.429  -2.463  29.994  0.00  0.00    -0.240 N 
ATOM     21  H   UNL     1      -3.011  -2.698  30.753  0.00  0.00    +0.165 HD
BRANCH  20  22
ATOM     22  C   UNL     1      -2.489  -1.158  29.421  0.00  0.00    +0.172 C 
ATOM     23  N   UNL     1      -2.537  -0.125  28.956  0.00  0.00    -0.174 NA
ENDBRANCH  20  22
ENDBRANCH  10  20
BRANCH   6  24
ATOM     24  O   UNL     1      -1.801  -7.286  30.514  0.00  0.00    -0.363 OA
BRANCH  24  25
ATOM     25  S   UNL     1      -3.216  -6.611  31.194  0.00  0.00    +0.009 S 
ATOM     26  O   UNL     1      -2.861  -5.411  31.988  0.00  0.00    -0.065 OA
ATOM     27  O   UNL     1      -3.892  -7.653  32.083  0.00  0.00    -0.065 OA
ATOM     28  H   UNL     1      -4.074  -6.244  30.205  0.00  0.00    +0.227 HD
ENDBRANCH  24  25
ENDBRANCH   6  24
TORSDOF 5
