REMARK  Name = =
REMARK  8 active torsions:
REMARK  status: ('A' for Active; 'I' for Inactive)
REMARK    1  A    between atoms: C_4  and  O_17
REMARK    2  A    between atoms: C_6  and  O_27
REMARK    3  A    between atoms: C_10  and  N_18
REMARK    4  A    between atoms: C_15  and  C_21
REMARK    5  A    between atoms: N_18  and  C_19
REMARK    6  A    between atoms: C_21  and  C_23
REMARK    7  A    between atoms: N_25  and  O_26
REMARK    8  A    between atoms: O_27  and  S_28
REMARK                            x       y       z     vdW  Elec       q    Type
REMARK                         _______ _______ _______ _____ _____    ______ ____
ROOT
ATOM      1  C   UNL     1      -0.073  -6.032  30.852  0.00  0.00    +0.021 C 
ATOM      2  C   UNL     1      -1.109  -6.687  30.205  0.00  0.00    -0.019 C 
ATOM      3  C   UNL     1      -1.963  -7.523  30.866  0.00  0.00    +0.032 C 
ATOM      4  C   UNL     1      -1.785  -7.715  32.207  0.00  0.00    +0.136 C 
ATOM      5  C   UNL     1      -0.746  -7.061  32.870  0.00  0.00    +0.076 C 
ATOM      6  C   UNL     1       0.134  -6.204  32.203  0.00  0.00    +0.171 C 
ATOM      7  C   UNL     1      -0.718  -6.062  28.929  0.00  0.00    +0.041 C 
ATOM      8  C   UNL     1       0.394  -5.341  29.596  0.00  0.00    +0.098 C 
ATOM      9  C   UNL     1       1.759  -5.716  29.245  0.00  0.00    +0.016 C 
ATOM     10  C   UNL     1       2.727  -4.869  28.991  0.00  0.00    +0.106 C 
ATOM     11  N   UNL     1       2.464  -3.482  29.043  0.00  0.00    -0.298 N 
ATOM     12  C   UNL     1       1.139  -3.045  29.374  0.00  0.00    +0.096 C 
ATOM     13  C   UNL     1       0.164  -3.874  29.632  0.00  0.00    +0.138 C 
ATOM     14  C   UNL     1      -1.763  -5.149  28.338  0.00  0.00    +0.057 C 
ATOM     15  C   UNL     1      -2.258  -4.090  29.274  0.00  0.00    +0.231 C 
ATOM     16  O   UNL     1      -1.149  -3.497  29.956  0.00  0.00    -0.474 OA
ATOM     17  H   UNL     1       3.176  -2.829  28.856  0.00  0.00    +0.153 HD
ENDROOT
BRANCH   4  18
ATOM     18  O   UNL     1      -2.651  -8.563  32.886  0.00  0.00    -0.505 OA
ATOM     19  H   UNL     1      -3.343  -8.994  32.424  0.00  0.00    +0.292 HD
ENDBRANCH   4  18
BRANCH  10  20
ATOM     20  N   UNL     1       4.045  -5.304  28.654  0.00  0.00    -0.240 N 
ATOM     21  H   UNL     1       4.310  -6.242  28.791  0.00  0.00    +0.165 HD
BRANCH  20  22
ATOM     22  C   UNL     1       4.934  -4.403  28.140  0.00  0.00    +0.172 C 
ATOM     23  N   UNL     1       5.709  -3.629  27.672  0.00  0.00    -0.174 NA
ENDBRANCH  20  22
ENDBRANCH  10  20
BRANCH  15  24
ATOM     24  C   UNL     1      -3.337  -4.487  30.164  0.00  0.00    +0.267 C 
ATOM     25  O   UNL     1      -4.131  -5.391  29.823  0.00  0.00    -0.283 OA
BRANCH  24  26
ATOM     26  C   UNL     1      -3.526  -3.856  31.454  0.00  0.00    +0.306 C 
ATOM     27  O   UNL     1      -3.746  -2.642  31.584  0.00  0.00    -0.265 OA
ATOM     28  N   UNL     1      -3.466  -4.633  32.676  0.00  0.00    -0.191 N 
ATOM     29  H   UNL     1      -3.295  -5.602  32.632  0.00  0.00    +0.183 HD
BRANCH  28  30
ATOM     30  O   UNL     1      -3.643  -4.036  33.877  0.00  0.00    -0.295 OA
ATOM     31  H   UNL     1      -3.800  -3.088  33.747  0.00  0.00    +0.241 HD
ENDBRANCH  28  30
ENDBRANCH  24  26
ENDBRANCH  15  24
BRANCH   6  32
ATOM     32  O   UNL     1       1.154  -5.576  32.911  0.00  0.00    -0.363 OA
BRANCH  32  33
ATOM     33  S   UNL     1       2.795  -5.954  32.712  0.00  0.00    +0.009 S 
ATOM     34  O   UNL     1       3.485  -5.136  31.687  0.00  0.00    -0.065 OA
ATOM     35  O   UNL     1       3.471  -5.714  34.045  0.00  0.00    -0.065 OA
ATOM     36  H   UNL     1       2.872  -7.244  32.289  0.00  0.00    +0.227 HD
ENDBRANCH  32  33
ENDBRANCH   6  32
TORSDOF 8
