REMARK  Name = =
REMARK  12 active torsions:
REMARK  status: ('A' for Active; 'I' for Inactive)
REMARK    1  A    between atoms: C_4  and  O_24
REMARK    2  A    between atoms: C_6  and  O_34
REMARK    3  A    between atoms: C_7  and  N_17
REMARK    4  A    between atoms: C_10  and  N_25
REMARK    5  A    between atoms: C_15  and  C_28
REMARK    6  A    between atoms: N_17  and  O_20
REMARK    7  A    between atoms: O_20  and  C_21
REMARK    8  A    between atoms: C_21  and  O_23
REMARK    9  A    between atoms: N_25  and  C_26
REMARK   10  A    between atoms: C_28  and  C_30
REMARK   11  A    between atoms: N_32  and  O_33
REMARK   12  A    between atoms: O_34  and  S_35
REMARK                            x       y       z     vdW  Elec       q    Type
REMARK                         _______ _______ _______ _____ _____    ______ ____
ROOT
ATOM      1  C   UNL     1       0.264  -6.567  28.979  0.00  0.00    +0.024 C 
ATOM      2  C   UNL     1      -0.914  -7.184  29.295  0.00  0.00    +0.001 C 
ATOM      3  C   UNL     1      -1.439  -8.081  28.371  0.00  0.00    +0.034 C 
ATOM      4  C   UNL     1      -0.810  -8.348  27.175  0.00  0.00    +0.137 C 
ATOM      5  C   UNL     1       0.373  -7.725  26.861  0.00  0.00    +0.076 C 
ATOM      6  C   UNL     1       0.899  -6.833  27.778  0.00  0.00    +0.171 C 
ATOM      7  C   UNL     1      -1.069  -6.509  30.594  0.00  0.00    +0.133 C 
ATOM      8  C   UNL     1       0.244  -5.842  30.294  0.00  0.00    +0.116 C 
ATOM      9  C   UNL     1       1.380  -6.212  31.127  0.00  0.00    +0.017 C 
ATOM     10  C   UNL     1       2.146  -5.310  31.689  0.00  0.00    +0.106 C 
ATOM     11  N   UNL     1       1.971  -3.921  31.521  0.00  0.00    -0.298 N 
ATOM     12  C   UNL     1       0.912  -3.495  30.705  0.00  0.00    +0.096 C 
ATOM     13  C   UNL     1       0.105  -4.391  30.126  0.00  0.00    +0.140 C 
ATOM     14  C   UNL     1      -2.230  -5.535  30.525  0.00  0.00    +0.079 C 
ATOM     15  C   UNL     1      -2.118  -4.652  29.297  0.00  0.00    +0.233 C 
ATOM     16  O   UNL     1      -0.916  -3.909  29.320  0.00  0.00    -0.473 OA
ATOM     17  H   UNL     1       2.570  -3.274  31.960  0.00  0.00    +0.153 HD
ENDROOT
BRANCH   7  18
ATOM     18  N   UNL     1      -1.171  -7.389  31.701  0.00  0.00    -0.108 N 
ATOM     19  C   UNL     1      -1.912  -8.591  31.595  0.00  0.00    +0.337 C 
ATOM     20  O   UNL     1      -2.500  -9.026  30.598  0.00  0.00    -0.262 OA
BRANCH  18  21
ATOM     21  O   UNL     1      -0.591  -7.153  32.934  0.00  0.00    -0.310 OA
BRANCH  21  22
ATOM     22  C   UNL     1       0.481  -7.940  33.330  0.00  0.00    +0.531 C 
ATOM     23  O   UNL     1       0.663  -9.098  32.886  0.00  0.00    -0.201 OA
BRANCH  22  24
ATOM     24  O   UNL     1       1.426  -7.494  34.248  0.00  0.00    -0.448 OA
ATOM     25  H   UNL     1       2.139  -8.050  34.495  0.00  0.00    +0.299 HD
ENDBRANCH  22  24
ENDBRANCH  21  22
ENDBRANCH  18  21
ENDBRANCH   7  18
BRANCH   4  26
ATOM     26  O   UNL     1      -1.397  -9.253  26.308  0.00  0.00    -0.505 OA
ATOM     27  H   UNL     1      -2.204  -9.668  26.540  0.00  0.00    +0.292 HD
ENDBRANCH   4  26
BRANCH  10  28
ATOM     28  N   UNL     1       3.273  -5.707  32.521  0.00  0.00    -0.240 N 
ATOM     29  H   UNL     1       3.783  -6.531  32.344  0.00  0.00    +0.165 HD
BRANCH  28  30
ATOM     30  C   UNL     1       3.589  -4.868  33.570  0.00  0.00    +0.172 C 
ATOM     31  N   UNL     1       3.846  -4.160  34.472  0.00  0.00    -0.174 NA
ENDBRANCH  28  30
ENDBRANCH  10  28
BRANCH  15  32
ATOM     32  C   UNL     1      -3.236  -3.674  29.282  0.00  0.00    +0.267 C 
ATOM     33  O   UNL     1      -4.410  -4.093  29.423  0.00  0.00    -0.283 OA
BRANCH  32  34
ATOM     34  C   UNL     1      -3.024  -2.250  29.108  0.00  0.00    +0.306 C 
ATOM     35  O   UNL     1      -2.321  -1.796  28.170  0.00  0.00    -0.265 OA
ATOM     36  N   UNL     1      -3.622  -1.345  30.018  0.00  0.00    -0.191 N 
ATOM     37  H   UNL     1      -4.178  -1.667  30.764  0.00  0.00    +0.183 HD
BRANCH  36  38
ATOM     38  O   UNL     1      -3.402  -0.007  29.827  0.00  0.00    -0.295 OA
ATOM     39  H   UNL     1      -2.836   0.120  29.050  0.00  0.00    +0.241 HD
ENDBRANCH  36  38
ENDBRANCH  32  34
ENDBRANCH  15  32
BRANCH   6  40
ATOM     40  O   UNL     1       2.079  -6.193  27.497  0.00  0.00    -0.363 OA
BRANCH  40  41
ATOM     41  S   UNL     1       2.211  -4.654  26.830  0.00  0.00    +0.009 S 
ATOM     42  O   UNL     1       2.840  -3.737  27.838  0.00  0.00    -0.065 OA
ATOM     43  O   UNL     1       0.860  -4.086  26.494  0.00  0.00    -0.065 OA
ATOM     44  H   UNL     1       2.959  -4.753  25.698  0.00  0.00    +0.227 HD
ENDBRANCH  40  41
ENDBRANCH   6  40
TORSDOF 12
