MODEL 1
REMARK VINA RESULT:    -6.551      0.000      0.000
REMARK INTER + INTRA:          -9.411
REMARK INTER:                  -8.274
REMARK INTRA:                  -1.137
REMARK UNBOUND:                -1.137
REMARK  Name = =
REMARK  5 active torsions:
REMARK  status: ('A' for Active; 'I' for Inactive)
REMARK    1  A    between atoms: N_1  and  N_4
REMARK    2  A    between atoms: N_1  and  O_17
REMARK    3  A    between atoms: C_2  and  C_15
REMARK    4  A    between atoms: O_17  and  C_18
REMARK    5  A    between atoms: C_22  and  O_26
REMARK                            x       y       z     vdW  Elec       q    Type
REMARK                         _______ _______ _______ _____ _____    ______ ____
ROOT
ATOM      1  N   UNL     1      60.162 160.605  40.809  0.00  0.00    -0.034 N 
ATOM      2  C   UNL     1      61.546 160.403  41.064  0.00  0.00    +0.300 C 
ATOM      3  O   UNL     1      62.018 160.645  42.199  0.00  0.00    -0.265 OA
ENDROOT
BRANCH   1   4
ATOM      4  N   UNL     1      59.641 160.338  39.525  0.00  0.00    -0.154 N 
ATOM      5  C   UNL     1      59.156 159.157  39.115  0.00  0.00    +0.189 C 
ATOM      6  N   UNL     1      58.748 159.280  37.823  0.00  0.00    -0.207 NA
ATOM      7  C   UNL     1      58.975 160.546  37.409  0.00  0.00    +0.166 A 
ATOM      8  C   UNL     1      59.537 161.191  38.496  0.00  0.00    +0.165 A 
ATOM      9  C   UNL     1      59.873 162.519  38.350  0.00  0.00    +0.279 A 
ATOM     10  O   UNL     1      60.388 163.118  39.340  0.00  0.00    -0.266 OA
ATOM     11  N   UNL     1      59.644 163.126  37.166  0.00  0.00    -0.273 N 
ATOM     12  C   UNL     1      59.093 162.454  36.126  0.00  0.00    +0.328 A 
ATOM     13  O   UNL     1      58.891 163.053  35.029  0.00  0.00    -0.247 OA
ATOM     14  N   UNL     1      58.750 161.152  36.237  0.00  0.00    -0.291 N 
ATOM     15  H   UNL     1      59.882 164.075  37.056  0.00  0.00    +0.173 HD
ATOM     16  H   UNL     1      58.348 160.666  35.481  0.00  0.00    +0.172 HD
ENDBRANCH   1   4
BRANCH   2  17
ATOM     17  C   UNL     1      62.444 159.919  40.029  0.00  0.00    +0.063 C 
ATOM     18  C   UNL     1      63.278 160.737  39.434  0.00  0.00    +0.005 C 
ENDBRANCH   2  17
BRANCH   1  19
ATOM     19  O   UNL     1      59.371 161.048  41.821  0.00  0.00    -0.363 OA
BRANCH  19  20
ATOM     20  C   UNL     1      58.002 161.058  41.865  0.00  0.00    +0.197 C 
ATOM     21  C   UNL     1      57.305 162.110  41.490  0.00  0.00    +0.143 C 
ATOM     22  C   UNL     1      55.841 162.121  41.538  0.00  0.00    +0.214 C 
ATOM     23  O   UNL     1      55.147 163.108  41.188  0.00  0.00    -0.288 OA
ATOM     24  C   UNL     1      55.189 160.910  42.021  0.00  0.00    +0.172 C 
ATOM     25  C   UNL     1      55.863 159.843  42.401  0.00  0.00    +0.085 C 
ATOM     26  C   UNL     1      57.315 159.869  42.339  0.00  0.00    +0.232 C 
ATOM     27  O   UNL     1      57.981 158.833  42.709  0.00  0.00    -0.283 OA
BRANCH  24  28
ATOM     28  O   UNL     1      53.789 160.826  42.102  0.00  0.00    -0.503 OA
ATOM     29  H   UNL     1      53.389 160.186  42.657  0.00  0.00    +0.292 HD
ENDBRANCH  24  28
ENDBRANCH  19  20
ENDBRANCH   1  19
TORSDOF 5
ENDMDL
