MODEL 1
REMARK VINA RESULT:    -9.960      0.000      0.000
REMARK INTER + INTRA:         -15.052
REMARK INTER:                 -14.618
REMARK INTRA:                  -0.434
REMARK UNBOUND:                -0.434
REMARK  Name = =
REMARK  9 active torsions:
REMARK  status: ('A' for Active; 'I' for Inactive)
REMARK    1  A    between atoms: C_5  and  C_23
REMARK    2  A    between atoms: C_15  and  C_25
REMARK    3  A    between atoms: C_15  and  O_29
REMARK    4  A    between atoms: C_17  and  N_27
REMARK    5  A    between atoms: N_27  and  N_28
REMARK    6  A    between atoms: O_29  and  S_30
REMARK    7  A    between atoms: S_30  and  N_33
REMARK    8  A    between atoms: C_34  and  C_36
REMARK    9  A    between atoms: C_36  and  O_38
REMARK                            x       y       z     vdW  Elec       q    Type
REMARK                         _______ _______ _______ _____ _____    ______ ____
ROOT
ATOM      1  O   UNL     1      -0.988  -7.329  27.726  0.00  0.00    -0.265 OA
ATOM      2  C   UNL     1      -0.482  -6.158  27.661  0.00  0.00    +0.305 C 
ATOM      3  N   UNL     1      -0.677  -5.278  28.715  0.00  0.00    -0.245 N 
ATOM      4  C   UNL     1      -1.434  -5.604  29.854  0.00  0.00    +0.108 C 
ATOM      5  C   UNL     1      -0.894  -6.281  30.998  0.00  0.00    +0.067 C 
ATOM      6  C   UNL     1      -2.060  -6.782  31.836  0.00  0.00    -0.016 C 
ATOM      7  C   UNL     1      -3.174  -5.971  31.999  0.00  0.00    -0.001 C 
ATOM      8  C   UNL     1      -3.336  -4.773  31.164  0.00  0.00    +0.034 C 
ATOM      9  C   UNL     1      -4.311  -3.850  31.427  0.00  0.00    +0.177 C 
ATOM     10  C   UNL     1      -4.291  -2.656  30.722  0.00  0.00    +0.177 C 
ATOM     11  C   UNL     1      -3.325  -2.391  29.782  0.00  0.00    +0.036 C 
ATOM     12  C   UNL     1      -2.326  -3.319  29.498  0.00  0.00    -0.017 C 
ATOM     13  C   UNL     1      -2.354  -4.499  30.198  0.00  0.00    -0.004 C 
ATOM     14  C   UNL     1      -1.302  -2.964  28.486  0.00  0.00    +0.080 C 
ATOM     15  C   UNL     1      -0.126  -3.911  28.614  0.00  0.00    +0.205 C 
ATOM     16  O   UNL     1      -5.360  -1.881  31.151  0.00  0.00    -0.427 OA
ATOM     17  C   UNL     1      -5.991  -2.490  32.260  0.00  0.00    +0.429 C 
ATOM     18  O   UNL     1      -5.382  -3.770  32.253  0.00  0.00    -0.427 OA
ATOM     19  C   UNL     1      -4.196  -6.321  32.834  0.00  0.00    -0.000 C 
ATOM     20  C   UNL     1      -4.103  -7.524  33.528  0.00  0.00    -0.000 C 
ATOM     21  C   UNL     1      -3.024  -8.354  33.394  0.00  0.00    -0.000 C 
ATOM     22  C   UNL     1      -2.004  -7.960  32.535  0.00  0.00    -0.004 C 
ENDROOT
BRANCH   5  23
ATOM     23  C   UNL     1       0.060  -7.354  30.728  0.00  0.00    -0.020 C 
ATOM     24  C   UNL     1       1.327  -7.272  31.171  0.00  0.00    -0.005 C 
ENDBRANCH   5  23
BRANCH  15  25
ATOM     25  C   UNL     1       0.615  -3.687  29.918  0.00  0.00    +0.022 C 
ATOM     26  C   UNL     1       1.865  -4.015  30.124  0.00  0.00    -0.001 C 
ENDBRANCH  15  25
BRANCH  17  27
ATOM     27  N   UNL     1      -7.426  -2.587  32.050  0.00  0.00    -0.176 NA
ATOM     28  H   UNL     1      -7.905  -2.287  32.900  0.00  0.00    +0.148 HD
BRANCH  27  29
ATOM     29  N   UNL     1      -7.850  -1.798  30.998  0.00  0.00    -0.264 NA
ATOM     30  H   UNL     1      -8.722  -2.171  30.623  0.00  0.00    +0.137 HD
ATOM     31  H   UNL     1      -7.138  -1.796  30.267  0.00  0.00    +0.137 HD
ENDBRANCH  27  29
ENDBRANCH  17  27
BRANCH  15  32
ATOM     32  O   UNL     1       0.771  -3.701  27.643  0.00  0.00    -0.208 OA
BRANCH  32  33
ATOM     33  S   UNL     1       0.803  -2.239  26.880  0.00  0.00    +0.067 S 
ATOM     34  O   UNL     1       0.593  -1.044  27.731  0.00  0.00    -0.052 OA
ATOM     35  O   UNL     1      -0.221  -2.207  25.739  0.00  0.00    -0.052 OA
BRANCH  33  36
ATOM     36  N   UNL     1       2.343  -2.108  26.055  0.00  0.00    -0.176 N 
ATOM     37  C   UNL     1       3.527  -1.882  26.806  0.00  0.00    +0.340 C 
ATOM     38  O   UNL     1       3.401  -1.777  28.070  0.00  0.00    -0.261 OA
ATOM     39  H   UNL     1       2.388  -2.190  25.075  0.00  0.00    +0.177 HD
BRANCH  37  40
ATOM     40  C   UNL     1       4.835  -1.770  26.181  0.00  0.00    +0.394 C 
ATOM     41  O   UNL     1       4.934  -1.340  25.009  0.00  0.00    -0.240 OA
BRANCH  40  42
ATOM     42  O   UNL     1       5.957  -2.148  26.911  0.00  0.00    -0.474 OA
ATOM     43  H   UNL     1       5.861  -2.467  27.787  0.00  0.00    +0.296 HD
ENDBRANCH  40  42
ENDBRANCH  37  40
ENDBRANCH  33  36
ENDBRANCH  32  33
ENDBRANCH  15  32
TORSDOF 9
ENDMDL
