REMARK  Name = =
REMARK  0 active torsions:
REMARK  status: ('A' for Active; 'I' for Inactive)
REMARK                            x       y       z     vdW  Elec       q    Type
REMARK                         _______ _______ _______ _____ _____    ______ ____
ROOT
ATOM      1  C   UNL     1      -4.412  -4.022  30.623  0.00  0.00    +0.103 C 
ATOM      2  N   UNL     1      -4.998  -3.544  31.883  0.00  0.00    -0.270 NA
ATOM      3  C   UNL     1      -5.135  -2.128  31.519  0.00  0.00    +0.216 C 
ATOM      4  O   UNL     1      -4.040  -1.794  30.774  0.00  0.00    -0.336 OA
ATOM      5  C   UNL     1      -3.370  -2.923  30.397  0.00  0.00    +0.161 C 
ATOM      6  H   UNL     1      -4.372  -3.680  32.677  0.00  0.00    +0.126 HD
ENDROOT
TORSDOF 0
