REMARK  Name = =
REMARK  0 active torsions:
REMARK  status: ('A' for Active; 'I' for Inactive)
REMARK                            x       y       z     vdW  Elec       q    Type
REMARK                         _______ _______ _______ _____ _____    ______ ____
ROOT
ATOM      1  C   UNL     1      -4.161  -4.061  30.642  0.00  0.00    +0.026 C 
ATOM      2  C   UNL     1      -2.790  -3.679  30.139  0.00  0.00    +0.005 C 
ATOM      3  C   UNL     1      -2.188  -4.897  29.491  0.00  0.00    +0.004 C 
ATOM      4  C   UNL     1      -1.839  -5.868  30.625  0.00  0.00    +0.022 C 
ATOM      5  C   UNL     1      -1.447  -7.161  29.982  0.00  0.00    +0.004 C 
ATOM      6  C   UNL     1      -0.353  -7.049  28.989  0.00  0.00    +0.000 C 
ATOM      7  C   UNL     1      -0.317  -5.815  28.180  0.00  0.00    +0.000 C 
ATOM      8  C   UNL     1      -0.857  -4.589  28.820  0.00  0.00    +0.000 C 
ATOM      9  C   UNL     1      -2.996  -6.068  31.517  0.00  0.00    -0.031 C 
ATOM     10  C   UNL     1      -4.046  -5.257  31.531  0.00  0.00    -0.031 C 
ENDROOT
TORSDOF 0
