REMARK  Name = =
REMARK  6 active torsions:
REMARK  status: ('A' for Active; 'I' for Inactive)
REMARK    1  A    between atoms: S_1  and  C_2
REMARK    2  A    between atoms: S_1  and  C_7
REMARK    3  A    between atoms: S_1  and  S_10
REMARK    4  A    between atoms: C_7  and  N_9
REMARK    5  A    between atoms: S_10  and  C_11
REMARK    6  A    between atoms: C_11  and  N_13
REMARK                            x       y       z     vdW  Elec       q    Type
REMARK                         _______ _______ _______ _____ _____    ______ ____
ROOT
ATOM      1  S   UNL     1      -3.163  -5.111  31.096  0.00  0.00    -0.128 S 
ATOM      2  H   UNL     1      -4.218  -5.296  30.258  0.00  0.00    +0.101 HD
ENDROOT
BRANCH   1   3
ATOM      3  C   UNL     1      -3.415  -3.628  31.755  0.00  0.00    +0.130 C 
ATOM      4  N   UNL     1      -3.765  -3.697  33.174  0.00  0.00    -0.263 NA
ATOM      5  C   UNL     1      -5.193  -3.677  33.223  0.00  0.00    +0.217 C 
ATOM      6  O   UNL     1      -5.680  -3.203  32.035  0.00  0.00    -0.335 OA
ATOM      7  C   UNL     1      -4.630  -2.898  31.208  0.00  0.00    +0.170 C 
ATOM      8  H   UNL     1      -3.381  -2.895  33.674  0.00  0.00    +0.126 HD
ENDBRANCH   1   3
BRANCH   1   9
ATOM      9  C   UNL     1      -3.218  -6.431  32.070  0.00  0.00    +0.095 C 
ATOM     10  S   UNL     1      -1.840  -7.169  32.616  0.00  0.00    -0.029 S 
BRANCH   9  11
ATOM     11  N   UNL     1      -4.433  -7.029  32.510  0.00  0.00    -0.348 N 
ATOM     12  H   UNL     1      -5.298  -6.651  32.230  0.00  0.00    +0.143 HD
ATOM     13  H   UNL     1      -4.408  -7.821  33.094  0.00  0.00    +0.143 HD
ENDBRANCH   9  11
ENDBRANCH   1   9
BRANCH   1  14
ATOM     14  S   UNL     1      -1.733  -5.068  30.426  0.00  0.00    -0.049 S 
BRANCH  14  15
ATOM     15  C   UNL     1      -1.315  -4.219  29.069  0.00  0.00    +0.113 C 
ATOM     16  S   UNL     1      -1.402  -2.565  28.980  0.00  0.00    -0.028 S 
BRANCH  15  17
ATOM     17  N   UNL     1      -0.847  -4.825  27.870  0.00  0.00    -0.346 N 
ATOM     18  H   UNL     1      -0.758  -5.804  27.816  0.00  0.00    +0.143 HD
ATOM     19  H   UNL     1      -0.613  -4.265  27.095  0.00  0.00    +0.143 HD
ENDBRANCH  15  17
ENDBRANCH  14  15
ENDBRANCH   1  14
TORSDOF 6
