REMARK  Name = =
REMARK  8 active torsions:
REMARK  status: ('A' for Active; 'I' for Inactive)
REMARK    1  A    between atoms: S_1  and  C_2
REMARK    2  A    between atoms: S_1  and  C_7
REMARK    3  A    between atoms: S_1  and  S_12
REMARK    4  A    between atoms: C_7  and  N_9
REMARK    5  A    between atoms: N_9  and  N_10
REMARK    6  A    between atoms: N_10  and  N_11
REMARK    7  A    between atoms: S_12  and  C_13
REMARK    8  A    between atoms: C_13  and  N_15
REMARK                            x       y       z     vdW  Elec       q    Type
REMARK                         _______ _______ _______ _____ _____    ______ ____
ROOT
ATOM      1  S   UNL     1      -3.856  -4.777  31.527  0.00  0.00    -0.127 S 
ATOM      2  H   UNL     1      -4.992  -5.231  30.932  0.00  0.00    +0.101 HD
ENDROOT
BRANCH   1   3
ATOM      3  C   UNL     1      -2.971  -4.027  30.360  0.00  0.00    +0.130 C 
ATOM      4  N   UNL     1      -1.549  -3.804  30.653  0.00  0.00    -0.263 NA
ATOM      5  C   UNL     1      -1.208  -2.944  29.535  0.00  0.00    +0.217 C 
ATOM      6  O   UNL     1      -2.313  -2.201  29.218  0.00  0.00    -0.335 OA
ATOM      7  C   UNL     1      -3.371  -2.615  29.992  0.00  0.00    +0.170 C 
ATOM      8  H   UNL     1      -1.017  -4.674  30.640  0.00  0.00    +0.126 HD
ENDBRANCH   1   3
BRANCH   1   9
ATOM      9  C   UNL     1      -3.205  -6.143  32.212  0.00  0.00    +0.112 C 
ATOM     10  S   UNL     1      -3.815  -7.635  31.961  0.00  0.00    -0.028 S 
BRANCH   9  11
ATOM     11  N   UNL     1      -2.057  -6.046  33.065  0.00  0.00    -0.256 N 
ATOM     12  H   UNL     1      -2.045  -5.367  33.778  0.00  0.00    +0.169 HD
BRANCH  11  13
ATOM     13  N   UNL     1      -0.958  -6.889  32.911  0.00  0.00    -0.180 NA
ATOM     14  H   UNL     1      -1.255  -7.780  32.513  0.00  0.00    +0.164 HD
BRANCH  13  15
ATOM     15  N   UNL     1      -0.061  -6.250  32.042  0.00  0.00    -0.254 NA
ATOM     16  H   UNL     1       0.230  -5.361  32.448  0.00  0.00    +0.138 HD
ATOM     17  H   UNL     1      -0.518  -6.082  31.146  0.00  0.00    +0.138 HD
ENDBRANCH  13  15
ENDBRANCH  11  13
ENDBRANCH   9  11
ENDBRANCH   1   9
BRANCH   1  18
ATOM     18  S   UNL     1      -4.059  -3.701  32.649  0.00  0.00    -0.049 S 
BRANCH  18  19
ATOM     19  C   UNL     1      -5.505  -2.966  33.007  0.00  0.00    +0.113 C 
ATOM     20  S   UNL     1      -6.520  -2.471  31.790  0.00  0.00    -0.028 S 
BRANCH  19  21
ATOM     21  N   UNL     1      -6.029  -2.682  34.324  0.00  0.00    -0.346 N 
ATOM     22  H   UNL     1      -5.512  -2.932  35.124  0.00  0.00    +0.143 HD
ATOM     23  H   UNL     1      -6.903  -2.239  34.421  0.00  0.00    +0.143 HD
ENDBRANCH  19  21
ENDBRANCH  18  19
ENDBRANCH   1  18
TORSDOF 8
