REMARK  Name = =
REMARK  2 active torsions:
REMARK  status: ('A' for Active; 'I' for Inactive)
REMARK    1  A    between atoms: C_2  and  C_11
REMARK    2  A    between atoms: C_10  and  C_21
REMARK                            x       y       z     vdW  Elec       q    Type
REMARK                         _______ _______ _______ _____ _____    ______ ____
ROOT
ATOM      1  C   UNL     1      -6.040  -0.580  31.618  0.00  0.00    +0.030 C 
ATOM      2  C   UNL     1      -6.537  -1.746  32.421  0.00  0.00    +0.063 C 
ATOM      3  C   UNL     1      -7.926  -2.081  31.945  0.00  0.00    +0.011 C 
ATOM      4  C   UNL     1      -8.825  -0.990  32.488  0.00  0.00    +0.022 C 
ATOM      5  C   UNL     1     -10.253  -1.133  32.029  0.00  0.00    +0.004 C 
ATOM      6  C   UNL     1     -10.635  -2.550  31.765  0.00  0.00    +0.000 C 
ATOM      7  C   UNL     1      -9.841  -3.530  32.583  0.00  0.00    +0.000 C 
ATOM      8  C   UNL     1      -8.370  -3.448  32.374  0.00  0.00    +0.001 C 
ATOM      9  C   UNL     1      -8.258   0.339  32.124  0.00  0.00    -0.035 C 
ATOM     10  C   UNL     1      -7.014   0.549  31.732  0.00  0.00    -0.044 C 
ENDROOT
BRANCH   2  11
ATOM     11  C   UNL     1      -5.588  -2.854  32.316  0.00  0.00    +0.139 C 
ATOM     12  N   UNL     1      -4.941  -3.156  31.178  0.00  0.00    -0.228 NA
ATOM     13  C   UNL     1      -4.070  -4.171  31.077  0.00  0.00    +0.121 C 
ATOM     14  C   UNL     1      -3.806  -4.958  32.174  0.00  0.00    +0.121 C 
ATOM     15  N   UNL     1      -2.934  -5.982  32.091  0.00  0.00    -0.221 NA
ATOM     16  C   UNL     1      -2.304  -6.265  30.951  0.00  0.00    +0.199 C 
ATOM     17  N   UNL     1      -2.550  -5.506  29.871  0.00  0.00    -0.221 NA
ATOM     18  C   UNL     1      -3.411  -4.473  29.901  0.00  0.00    +0.121 C 
ATOM     19  C   UNL     1      -4.465  -4.657  33.353  0.00  0.00    +0.121 C 
ATOM     20  N   UNL     1      -5.333  -3.619  33.391  0.00  0.00    -0.228 NA
ENDBRANCH   2  11
BRANCH  10  21
ATOM     21  C   UNL     1      -6.529   1.899  31.386  0.00  0.00    +0.040 C 
ATOM     22  C   UNL     1      -6.726   2.207  29.916  0.00  0.00    +0.009 C 
ATOM     23  C   UNL     1      -6.279   3.641  29.671  0.00  0.00    +0.005 C 
ATOM     24  C   UNL     1      -7.307   4.541  30.276  0.00  0.00    +0.026 C 
ATOM     25  C   UNL     1      -7.501   4.160  31.696  0.00  0.00    -0.030 C 
ATOM     26  C   UNL     1      -7.147   2.978  32.168  0.00  0.00    -0.027 C 
ENDBRANCH  10  21
TORSDOF 2
