REMARK  Name = =
REMARK  12 active torsions:
REMARK  status: ('A' for Active; 'I' for Inactive)
REMARK    1  A    between atoms: S_1  and  C_2
REMARK    2  A    between atoms: S_1  and  S_15
REMARK    3  A    between atoms: C_2  and  S_3
REMARK    4  A    between atoms: C_2  and  N_4
REMARK    5  A    between atoms: S_3  and  N_5
REMARK    6  A    between atoms: N_5  and  S_6
REMARK    7  A    between atoms: S_6  and  C_9
REMARK    8  A    between atoms: S_15  and  C_16
REMARK    9  A    between atoms: S_15  and  C_21
REMARK   10  A    between atoms: C_21  and  N_23
REMARK   11  A    between atoms: N_23  and  N_24
REMARK   12  A    between atoms: N_24  and  N_25
REMARK                            x       y       z     vdW  Elec       q    Type
REMARK                         _______ _______ _______ _____ _____    ______ ____
ROOT
ATOM      1  S   UNL     1       4.792 -11.009  23.610  0.00  0.00    -0.070 S 
ENDROOT
BRANCH   1   2
ATOM      2  S   UNL     1       3.160 -10.743  24.127  0.00  0.00    -0.130 S 
ATOM      3  H   UNL     1       2.744  -9.912  23.134  0.00  0.00    +0.101 HD
BRANCH   2   4
ATOM      4  C   UNL     1       2.098 -11.971  23.946  0.00  0.00    +0.129 C 
ATOM      5  N   UNL     1       0.723 -11.447  23.873  0.00  0.00    -0.263 NA
ATOM      6  C   UNL     1      -0.022 -12.708  23.911  0.00  0.00    +0.217 C 
ATOM      7  O   UNL     1       0.634 -13.567  24.751  0.00  0.00    -0.335 OA
ATOM      8  C   UNL     1       1.918 -13.020  24.989  0.00  0.00    +0.170 C 
ATOM      9  H   UNL     1       0.501 -10.850  24.670  0.00  0.00    +0.126 HD
ENDBRANCH   2   4
BRANCH   2  10
ATOM     10  C   UNL     1       2.955  -9.788  25.510  0.00  0.00    +0.112 C 
ATOM     11  S   UNL     1       3.761 -10.105  26.920  0.00  0.00    -0.028 S 
BRANCH  10  12
ATOM     12  N   UNL     1       2.081  -8.683  25.509  0.00  0.00    -0.256 N 
ATOM     13  H   UNL     1       2.073  -8.060  26.272  0.00  0.00    +0.169 HD
BRANCH  12  14
ATOM     14  N   UNL     1       1.232  -8.473  24.433  0.00  0.00    -0.180 NA
ATOM     15  H   UNL     1       0.282  -8.361  24.787  0.00  0.00    +0.164 HD
BRANCH  14  16
ATOM     16  N   UNL     1       1.559  -7.350  23.687  0.00  0.00    -0.254 NA
ATOM     17  H   UNL     1       2.508  -7.447  23.325  0.00  0.00    +0.138 HD
ATOM     18  H   UNL     1       1.504  -6.521  24.279  0.00  0.00    +0.138 HD
ENDBRANCH  14  16
ENDBRANCH  12  14
ENDBRANCH  10  12
ENDBRANCH   2  10
ENDBRANCH   1   2
BRANCH   1  19
ATOM     19  C   UNL     1       5.687 -12.109  24.424  0.00  0.00    +0.160 C 
BRANCH  19  20
ATOM     20  N   UNL     1       5.285 -13.428  24.770  0.00  0.00    -0.304 NA
ATOM     21  H   UNL     1       4.338 -13.595  24.430  0.00  0.00    +0.120 HD
ATOM     22  H   UNL     1       5.306 -13.535  25.784  0.00  0.00    +0.120 HD
ENDBRANCH  19  20
BRANCH  19  23
ATOM     23  S   UNL     1       7.227 -11.714  24.929  0.00  0.00    -0.102 S 
ATOM     24  H   UNL     1       7.104 -10.625  25.734  0.00  0.00    +0.112 HD
BRANCH  23  25
ATOM     25  N   UNL     1       8.208 -12.870  25.801  0.00  0.00    -0.143 NA
ATOM     26  H   UNL     1       9.194 -12.710  25.595  0.00  0.00    +0.161 HD
BRANCH  25  27
ATOM     27  S   UNL     1       7.923 -12.659  27.502  0.00  0.00    +0.068 S 
ATOM     28  O   UNL     1       8.756 -13.639  28.287  0.00  0.00    -0.152 OA
ATOM     29  O   UNL     1       6.488 -12.988  27.776  0.00  0.00    -0.152 OA
BRANCH  27  30
ATOM     30  C   UNL     1       8.344 -11.057  28.012  0.00  0.00    +0.123 C 
ATOM     31  C   UNL     1       7.326 -10.184  28.357  0.00  0.00    +0.020 C 
ATOM     32  C   UNL     1       7.587  -8.895  28.773  0.00  0.00    +0.001 C 
ATOM     33  C   UNL     1       8.910  -8.499  28.835  0.00  0.00    +0.000 C 
ATOM     34  C   UNL     1       9.939  -9.376  28.488  0.00  0.00    +0.001 C 
ATOM     35  C   UNL     1       9.658 -10.647  28.080  0.00  0.00    +0.020 C 
ENDBRANCH  27  30
ENDBRANCH  25  27
ENDBRANCH  23  25
ENDBRANCH  19  23
ENDBRANCH   1  19
TORSDOF 12
