REMARK  Name = =
REMARK  5 active torsions:
REMARK  status: ('A' for Active; 'I' for Inactive)
REMARK    1  A    between atoms: C_1  and  S_27
REMARK    2  A    between atoms: C_2  and  C_11
REMARK    3  A    between atoms: C_10  and  C_21
REMARK    4  A    between atoms: S_27  and  N_30
REMARK    5  A    between atoms: N_30  and  C_31
REMARK                            x       y       z     vdW  Elec       q    Type
REMARK                         _______ _______ _______ _____ _____    ______ ____
ROOT
ATOM      1  C   UNL     1     -10.627  -1.660  29.006  0.00  0.00    +0.174 C 
ATOM      2  C   UNL     1     -10.701  -0.920  30.342  0.00  0.00    +0.086 C 
ATOM      3  C   UNL     1     -11.010  -1.945  31.380  0.00  0.00    +0.013 C 
ATOM      4  C   UNL     1     -12.495  -2.305  31.287  0.00  0.00    +0.022 C 
ATOM      5  C   UNL     1     -12.728  -3.497  32.170  0.00  0.00    +0.004 C 
ATOM      6  C   UNL     1     -11.409  -3.935  32.757  0.00  0.00    +0.000 C 
ATOM      7  C   UNL     1     -10.778  -2.826  33.609  0.00  0.00    +0.000 C 
ATOM      8  C   UNL     1     -10.774  -1.516  32.808  0.00  0.00    +0.001 C 
ATOM      9  C   UNL     1     -12.802  -2.511  29.867  0.00  0.00    -0.033 C 
ATOM     10  C   UNL     1     -12.014  -2.245  28.822  0.00  0.00    -0.021 C 
ENDROOT
BRANCH   2  11
ATOM     11  C   UNL     1      -9.492  -0.180  30.700  0.00  0.00    +0.141 C 
ATOM     12  N   UNL     1      -8.354  -0.901  30.949  0.00  0.00    -0.228 NA
ATOM     13  C   UNL     1      -7.185  -0.349  31.272  0.00  0.00    +0.121 C 
ATOM     14  C   UNL     1      -7.075   1.023  31.370  0.00  0.00    +0.121 C 
ATOM     15  N   UNL     1      -5.898   1.593  31.696  0.00  0.00    -0.221 NA
ATOM     16  C   UNL     1      -4.789   0.878  31.938  0.00  0.00    +0.199 C 
ATOM     17  N   UNL     1      -4.891  -0.461  31.843  0.00  0.00    -0.221 NA
ATOM     18  C   UNL     1      -6.040  -1.080  31.522  0.00  0.00    +0.121 C 
ATOM     19  C   UNL     1      -8.213   1.760  31.122  0.00  0.00    +0.121 C 
ATOM     20  N   UNL     1      -9.378   1.146  30.797  0.00  0.00    -0.228 NA
ENDBRANCH   2  11
BRANCH  10  21
ATOM     21  C   UNL     1     -12.536  -2.553  27.455  0.00  0.00    +0.041 C 
ATOM     22  C   UNL     1     -14.005  -2.920  27.508  0.00  0.00    +0.009 C 
ATOM     23  C   UNL     1     -14.497  -3.237  26.126  0.00  0.00    +0.005 C 
ATOM     24  C   UNL     1     -13.481  -3.832  25.225  0.00  0.00    +0.026 C 
ATOM     25  C   UNL     1     -12.294  -4.378  25.906  0.00  0.00    -0.030 C 
ATOM     26  C   UNL     1     -11.809  -3.790  26.982  0.00  0.00    -0.027 C 
ENDBRANCH  10  21
BRANCH   1  27
ATOM     27  S   UNL     1     -10.281  -0.565  27.699  0.00  0.00    +0.056 S 
ATOM     28  O   UNL     1      -9.978  -1.379  26.452  0.00  0.00    -0.154 OA
ATOM     29  O   UNL     1      -8.966   0.185  27.968  0.00  0.00    -0.154 OA
BRANCH  27  30
ATOM     30  N   UNL     1     -11.449   0.592  27.317  0.00  0.00    -0.219 N 
ATOM     31  H   UNL     1     -11.762   1.176  28.045  0.00  0.00    +0.173 HD
BRANCH  30  32
ATOM     32  C   UNL     1     -12.012   0.789  26.043  0.00  0.00    +0.064 C 
ATOM     33  C   UNL     1     -12.737   1.878  25.636  0.00  0.00    +0.016 C 
ATOM     34  C   UNL     1     -13.268   1.987  24.342  0.00  0.00    +0.001 C 
ATOM     35  C   UNL     1     -13.057   0.974  23.447  0.00  0.00    +0.000 C 
ATOM     36  C   UNL     1     -12.335  -0.148  23.798  0.00  0.00    +0.001 C 
ATOM     37  C   UNL     1     -11.839  -0.215  25.060  0.00  0.00    +0.016 C 
ENDBRANCH  30  32
ENDBRANCH  27  30
ENDBRANCH   1  27
TORSDOF 5
