REMARK  Name = =
REMARK  1 active torsions:
REMARK  status: ('A' for Active; 'I' for Inactive)
REMARK    1  A    between atoms: C_3  and  O_7
REMARK                            x       y       z     vdW  Elec       q    Type
REMARK                         _______ _______ _______ _____ _____    ______ ____
ROOT
ATOM      1  C   UNL     1      -4.003  -3.870  30.551  0.00  0.00    +0.102 C 
ATOM      2  C   UNL     1      -3.076  -2.907  30.193  0.00  0.00    +0.057 C 
ATOM      3  C   UNL     1      -1.761  -3.233  29.920  0.00  0.00    +0.137 C 
ATOM      4  C   UNL     1      -1.338  -4.544  29.999  0.00  0.00    +0.057 C 
ATOM      5  C   UNL     1      -2.284  -5.483  30.358  0.00  0.00    +0.102 C 
ATOM      6  N   UNL     1      -3.557  -5.143  30.619  0.00  0.00    -0.242 NA
ENDROOT
BRANCH   3   7
ATOM      7  O   UNL     1      -0.814  -2.280  29.559  0.00  0.00    -0.505 OA
ATOM      8  H   UNL     1       0.068  -2.540  29.382  0.00  0.00    +0.292 HD
ENDBRANCH   3   7
TORSDOF 1
