MODEL 1
REMARK VINA RESULT:    -8.682      0.000      0.000
REMARK INTER + INTRA:         -17.272
REMARK INTER:                 -13.250
REMARK INTRA:                  -4.022
REMARK UNBOUND:                -4.022
REMARK  Name = =
REMARK  10 active torsions:
REMARK  status: ('A' for Active; 'I' for Inactive)
REMARK    1  A    between atoms: C_1  and  O_30
REMARK    2  A    between atoms: C_2  and  N_7
REMARK    3  A    between atoms: C_3  and  O_29
REMARK    4  A    between atoms: C_4  and  C_14
REMARK    5  A    between atoms: C_5  and  O_28
REMARK    6  A    between atoms: C_6  and  C_20
REMARK    7  A    between atoms: C_20  and  C_22
REMARK    8  A    between atoms: O_30  and  N_31
REMARK    9  A    between atoms: C_32  and  N_37
REMARK   10  A    between atoms: N_37  and  C_38
REMARK                            x       y       z     vdW  Elec       q    Type
REMARK                         _______ _______ _______ _____ _____    ______ ____
ROOT
ATOM      1  C   UNL     1       0.412  -6.169  28.420  0.00  0.00    +0.189 A 
ATOM      2  C   UNL     1      -0.305  -5.285  29.238  0.00  0.00    +0.126 A 
ATOM      3  C   UNL     1      -1.190  -5.702  30.180  0.00  0.00    +0.151 A 
ATOM      4  C   UNL     1      -1.390  -7.056  30.343  0.00  0.00    +0.073 A 
ATOM      5  C   UNL     1      -0.714  -8.010  29.558  0.00  0.00    +0.137 A 
ATOM      6  C   UNL     1       0.174  -7.584  28.602  0.00  0.00    +0.083 A 
ENDROOT
BRANCH   2   7
ATOM      7  N   UNL     1      -0.103  -3.891  29.043  0.00  0.00    -0.228 N 
ATOM      8  C   UNL     1       1.027  -3.206  29.692  0.00  0.00    +0.185 C 
ATOM      9  C   UNL     1       1.143  -1.992  28.831  0.00  0.00    +0.250 C 
ATOM     10  O   UNL     1       2.199  -1.314  28.777  0.00  0.00    -0.273 OA
ATOM     11  N   UNL     1      -0.087  -1.791  28.150  0.00  0.00    -0.238 N 
ATOM     12  C   UNL     1      -0.853  -2.961  28.281  0.00  0.00    +0.314 C 
ATOM     13  O   UNL     1      -2.020  -3.172  27.806  0.00  0.00    -0.252 OA
ATOM     14  H   UNL     1      -0.355  -0.974  27.671  0.00  0.00    +0.159 HD
ENDBRANCH   2   7
BRANCH   4  15
ATOM     15  C   UNL     1      -2.380  -7.472  31.358  0.00  0.00    +0.143 C 
ATOM     16  C   UNL     1      -1.804  -7.399  32.728  0.00  0.00    +0.034 C 
ATOM     17  C   UNL     1      -2.690  -6.696  33.744  0.00  0.00    +0.005 C 
ATOM     18  C   UNL     1      -4.106  -6.485  33.367  0.00  0.00    +0.032 C 
ATOM     19  C   UNL     1      -4.459  -7.375  32.189  0.00  0.00    +0.143 C 
ATOM     20  O   UNL     1      -3.600  -6.902  31.154  0.00  0.00    -0.352 OA
ENDBRANCH   4  15
BRANCH   6  21
ATOM     21  C   UNL     1       0.636  -8.401  27.543  0.00  0.00    +0.198 C 
ATOM     22  O   UNL     1      -0.358  -8.928  26.839  0.00  0.00    -0.214 OA
BRANCH  21  23
ATOM     23  C   UNL     1       1.930  -8.867  27.036  0.00  0.00    -0.014 C 
ATOM     24  C   UNL     1       2.930  -9.311  27.730  0.00  0.00    -0.032 C 
ATOM     25  C   UNL     1       4.254  -9.779  27.223  0.00  0.00    +0.025 C 
ATOM     26  C   UNL     1       4.115 -10.334  25.818  0.00  0.00    +0.005 C 
ATOM     27  C   UNL     1       3.317  -9.379  24.962  0.00  0.00    +0.005 C 
ATOM     28  C   UNL     1       2.091  -8.844  25.521  0.00  0.00    +0.025 C 
ENDBRANCH  21  23
ENDBRANCH   6  21
BRANCH   5  29
ATOM     29  O   UNL     1      -0.982  -9.286  29.817  0.00  0.00    -0.506 OA
ATOM     30  H   UNL     1      -1.295  -9.847  29.135  0.00  0.00    +0.292 HD
ENDBRANCH   5  29
BRANCH   3  31
ATOM     31  O   UNL     1      -1.874  -4.764  30.958  0.00  0.00    -0.504 OA
ATOM     32  H   UNL     1      -1.960  -3.880  30.658  0.00  0.00    +0.292 HD
ENDBRANCH   3  31
BRANCH   1  33
ATOM     33  O   UNL     1       1.252  -5.700  27.554  0.00  0.00    -0.378 OA
BRANCH  33  34
ATOM     34  N   UNL     1       2.195  -5.257  26.836  0.00  0.00    -0.106 N 
ATOM     35  C   UNL     1       2.222  -4.196  25.815  0.00  0.00    +0.187 C 
ATOM     36  C   UNL     1       2.999  -4.923  24.708  0.00  0.00    +0.054 C 
ATOM     37  C   UNL     1       4.080  -5.675  25.429  0.00  0.00    +0.092 C 
ATOM     38  C   UNL     1       3.606  -5.701  26.821  0.00  0.00    +0.258 C 
ATOM     39  O   UNL     1       4.269  -6.038  27.839  0.00  0.00    -0.272 OA
BRANCH  35  40
ATOM     40  N   UNL     1       3.041  -3.074  26.247  0.00  0.00    -0.316 N 
ATOM     41  H   UNL     1       3.472  -3.090  27.132  0.00  0.00    +0.148 HD
BRANCH  40  42
ATOM     42  C   UNL     1       3.218  -1.944  25.380  0.00  0.00    +0.049 C 
ATOM     43  C   UNL     1       2.175  -1.094  25.083  0.00  0.00    +0.035 C 
ATOM     44  C   UNL     1       2.461  -0.058  24.181  0.00  0.00    +0.100 C 
ATOM     45  N   UNL     1       3.677   0.080  23.653  0.00  0.00    -0.242 NA
ATOM     46  C   UNL     1       4.710  -0.734  23.926  0.00  0.00    +0.100 C 
ATOM     47  C   UNL     1       4.455  -1.774  24.821  0.00  0.00    +0.035 C 
ENDBRANCH  40  42
ENDBRANCH  35  40
ENDBRANCH  33  34
ENDBRANCH   1  33
TORSDOF 10
ENDMDL
