MODEL 1
REMARK VINA RESULT:   -11.401      0.000      0.000
REMARK INTER + INTRA:         -18.289
REMARK INTER:                 -16.067
REMARK INTRA:                  -2.222
REMARK UNBOUND:                -2.222
REMARK  Name = =
REMARK  7 active torsions:
REMARK  status: ('A' for Active; 'I' for Inactive)
REMARK    1  A    between atoms: C_1  and  O_23
REMARK    2  A    between atoms: C_9  and  C_10
REMARK    3  A    between atoms: C_10  and  C_17
REMARK    4  A    between atoms: O_23  and  C_24
REMARK    5  A    between atoms: C_24  and  O_26
REMARK    6  A    between atoms: O_26  and  C_34
REMARK    7  A    between atoms: C_27  and  N_37
REMARK                            x       y       z     vdW  Elec       q    Type
REMARK                         _______ _______ _______ _____ _____    ______ ____
ROOT
ATOM      1  C   UNL     1      -0.958  -2.973  28.398  0.00  0.00    +0.152 C 
ATOM      2  C   UNL     1      -0.154  -3.032  27.315  0.00  0.00    +0.035 C 
ATOM      3  C   UNL     1       1.209  -3.316  27.407  0.00  0.00    -0.004 C 
ATOM      4  C   UNL     1       1.731  -3.540  28.652  0.00  0.00    -0.009 C 
ATOM      5  C   UNL     1       0.912  -3.478  29.799  0.00  0.00    -0.000 C 
ATOM      6  C   UNL     1      -0.423  -3.195  29.655  0.00  0.00    +0.037 C 
ATOM      7  C   UNL     1       3.166  -3.879  28.571  0.00  0.00    +0.096 C 
ATOM      8  N   UNL     1       3.507  -3.711  27.202  0.00  0.00    -0.288 NA
ATOM      9  C   UNL     1       2.325  -3.479  26.477  0.00  0.00    +0.120 C 
ATOM     10  H   UNL     1       3.965  -4.555  26.855  0.00  0.00    +0.124 HD
ENDROOT
BRANCH   9  11
ATOM     11  C   UNL     1       2.458  -2.436  25.391  0.00  0.00    +0.189 C 
ATOM     12  O   UNL     1       1.877  -2.922  24.204  0.00  0.00    -0.448 OA
ATOM     13  C   UNL     1       1.381  -2.054  23.269  0.00  0.00    +0.317 C 
ATOM     14  O   UNL     1       0.881  -2.493  22.187  0.00  0.00    -0.250 OA
ATOM     15  C   UNL     1       1.372  -0.562  23.407  0.00  0.00    +0.110 C 
ATOM     16  C   UNL     1       2.271  -0.159  24.552  0.00  0.00    +0.016 C 
ATOM     17  C   UNL     1       1.942  -1.096  25.728  0.00  0.00    +0.048 C 
BRANCH  11  18
ATOM     18  C   UNL     1       3.922  -2.322  25.059  0.00  0.00    +0.118 C 
ATOM     19  N   UNL     1       4.756  -1.516  25.772  0.00  0.00    -0.149 NA
ATOM     20  N   UNL     1       6.044  -1.385  25.496  0.00  0.00    -0.147 NA
ATOM     21  C   UNL     1       6.610  -2.050  24.481  0.00  0.00    +0.122 C 
ATOM     22  C   UNL     1       5.820  -2.882  23.724  0.00  0.00    +0.024 C 
ATOM     23  C   UNL     1       4.458  -3.017  24.021  0.00  0.00    +0.022 C 
ENDBRANCH  11  18
ENDBRANCH   9  11
BRANCH   1  24
ATOM     24  O   UNL     1      -2.347  -2.708  28.332  0.00  0.00    -0.393 OA
BRANCH  24  25
ATOM     25  C   UNL     1      -2.840  -1.776  29.222  0.00  0.00    +0.521 C 
ATOM     26  O   UNL     1      -2.134  -0.686  29.229  0.00  0.00    -0.202 OA
BRANCH  25  27
ATOM     27  O   UNL     1      -3.891  -1.754  30.082  0.00  0.00    -0.393 OA
BRANCH  27  35
ATOM     28  C   UNL     1      -3.373  -6.564  31.054  0.00  0.00    +0.080 C 
ATOM     29  C   UNL     1      -4.502  -7.455  31.621  0.00  0.00    +0.021 C 
ATOM     30  C   UNL     1      -4.291  -7.453  33.114  0.00  0.00    +0.006 C 
ATOM     31  C   UNL     1      -4.276  -6.095  33.711  0.00  0.00    +0.026 C 
ATOM     32  C   UNL     1      -4.144  -4.974  32.756  0.00  0.00    -0.025 C 
ATOM     33  C   UNL     1      -3.705  -5.188  31.458  0.00  0.00    -0.009 C 
ATOM     34  C   UNL     1      -3.624  -4.123  30.595  0.00  0.00    +0.034 C 
ATOM     35  C   UNL     1      -3.961  -2.846  30.966  0.00  0.00    +0.152 C 
ATOM     36  C   UNL     1      -4.390  -2.644  32.245  0.00  0.00    +0.037 C 
ATOM     37  C   UNL     1      -4.490  -3.700  33.156  0.00  0.00    -0.001 C 
BRANCH  28  38
ATOM     38  N   UNL     1      -2.145  -7.038  31.628  0.00  0.00    -0.273 NA
ATOM     39  C   UNL     1      -0.990  -6.387  31.092  0.00  0.00    +0.058 C 
ATOM     40  C   UNL     1      -0.859  -6.895  29.681  0.00  0.00    +0.017 C 
ATOM     41  C   UNL     1      -1.417  -8.290  29.758  0.00  0.00    +0.017 C 
ATOM     42  C   UNL     1      -1.944  -8.429  31.191  0.00  0.00    +0.058 C 
ATOM     43  C   UNL     1      -0.859  -9.053  32.008  0.00  0.00    +0.016 C 
ATOM     44  C   UNL     1       0.017  -8.043  32.696  0.00  0.00    +0.003 C 
ATOM     45  C   UNL     1       0.231  -6.786  31.883  0.00  0.00    +0.016 C 
ENDBRANCH  28  38
ENDBRANCH  27  35
ENDBRANCH  25  27
ENDBRANCH  24  25
ENDBRANCH   1  24
TORSDOF 7
ENDMDL
