REMARK  Name = =
REMARK  7 active torsions:
REMARK  status: ('A' for Active; 'I' for Inactive)
REMARK    1  A    between atoms: C_1  and  O_23
REMARK    2  A    between atoms: C_9  and  C_10
REMARK    3  A    between atoms: C_10  and  C_17
REMARK    4  A    between atoms: O_23  and  C_24
REMARK    5  A    between atoms: C_24  and  O_26
REMARK    6  A    between atoms: O_26  and  C_34
REMARK    7  A    between atoms: C_27  and  N_37
REMARK                            x       y       z     vdW  Elec       q    Type
REMARK                         _______ _______ _______ _____ _____    ______ ____
ROOT
ATOM      1  C   UNL     1      -2.581  -3.064  29.811  0.00  0.00    +0.152 C 
ATOM      2  C   UNL     1      -2.206  -4.134  30.544  0.00  0.00    +0.035 C 
ATOM      3  C   UNL     1      -0.869  -4.490  30.723  0.00  0.00    -0.004 C 
ATOM      4  C   UNL     1       0.084  -3.712  30.122  0.00  0.00    -0.009 C 
ATOM      5  C   UNL     1      -0.284  -2.592  29.347  0.00  0.00    -0.000 C 
ATOM      6  C   UNL     1      -1.613  -2.284  29.202  0.00  0.00    +0.037 C 
ATOM      7  C   UNL     1       1.442  -4.189  30.453  0.00  0.00    +0.096 C 
ATOM      8  N   UNL     1       1.242  -5.391  31.184  0.00  0.00    -0.288 NA
ATOM      9  C   UNL     1      -0.133  -5.527  31.444  0.00  0.00    +0.120 C 
ATOM     10  H   UNL     1       1.757  -5.349  32.064  0.00  0.00    +0.124 HD
ENDROOT
BRANCH   9  11
ATOM     11  C   UNL     1      -0.653  -6.940  31.313  0.00  0.00    +0.189 C 
ATOM     12  O   UNL     1      -1.025  -7.178  29.976  0.00  0.00    -0.448 OA
ATOM     13  C   UNL     1      -1.011  -8.449  29.468  0.00  0.00    +0.317 C 
ATOM     14  O   UNL     1      -1.372  -8.666  28.270  0.00  0.00    -0.250 OA
ATOM     15  C   UNL     1      -0.589  -9.669  30.229  0.00  0.00    +0.110 C 
ATOM     16  C   UNL     1      -0.505  -9.338  31.701  0.00  0.00    +0.016 C 
ATOM     17  C   UNL     1       0.244  -7.998  31.814  0.00  0.00    +0.048 C 
BRANCH  11  18
ATOM     18  C   UNL     1      -1.953  -7.008  32.070  0.00  0.00    +0.118 C 
ATOM     19  N   UNL     1      -3.143  -7.181  31.433  0.00  0.00    -0.149 NA
ATOM     20  N   UNL     1      -4.303  -7.231  32.069  0.00  0.00    -0.147 NA
ATOM     21  C   UNL     1      -4.372  -7.113  33.401  0.00  0.00    +0.122 C 
ATOM     22  C   UNL     1      -3.203  -6.937  34.102  0.00  0.00    +0.024 C 
ATOM     23  C   UNL     1      -1.979  -6.885  33.424  0.00  0.00    +0.022 C 
ENDBRANCH  11  18
ENDBRANCH   9  11
BRANCH   1  24
ATOM     24  O   UNL     1      -3.928  -2.668  29.630  0.00  0.00    -0.393 OA
BRANCH  24  25
ATOM     25  C   UNL     1      -4.647  -2.384  30.772  0.00  0.00    +0.521 C 
ATOM     26  O   UNL     1      -4.143  -1.384  31.430  0.00  0.00    -0.202 OA
BRANCH  25  27
ATOM     27  O   UNL     1      -5.753  -2.919  31.351  0.00  0.00    -0.393 OA
BRANCH  27  35
ATOM     28  C   UNL     1     -10.673  -2.553  31.262  0.00  0.00    +0.080 C 
ATOM     29  C   UNL     1     -11.473  -1.975  30.072  0.00  0.00    +0.021 C 
ATOM     30  C   UNL     1     -11.686  -0.521  30.412  0.00  0.00    +0.006 C 
ATOM     31  C   UNL     1     -10.427   0.220  30.673  0.00  0.00    +0.026 C 
ATOM     32  C   UNL     1      -9.222  -0.612  30.878  0.00  0.00    -0.025 C 
ATOM     33  C   UNL     1      -9.327  -1.964  31.166  0.00  0.00    -0.009 C 
ATOM     34  C   UNL     1      -8.182  -2.706  31.322  0.00  0.00    +0.034 C 
ATOM     35  C   UNL     1      -6.929  -2.161  31.204  0.00  0.00    +0.152 C 
ATOM     36  C   UNL     1      -6.835  -0.830  30.923  0.00  0.00    +0.037 C 
ATOM     37  C   UNL     1      -7.974  -0.037  30.754  0.00  0.00    -0.001 C 
BRANCH  28  38
ATOM     38  N   UNL     1     -11.372  -2.168  32.456  0.00  0.00    -0.273 NA
ATOM     39  C   UNL     1     -11.032  -2.973  33.587  0.00  0.00    +0.058 C 
ATOM     40  C   UNL     1     -11.646  -4.322  33.321  0.00  0.00    +0.017 C 
ATOM     41  C   UNL     1     -12.873  -3.995  32.514  0.00  0.00    +0.017 C 
ATOM     42  C   UNL     1     -12.798  -2.483  32.272  0.00  0.00    +0.058 C 
ATOM     43  C   UNL     1     -13.595  -1.817  33.347  0.00  0.00    +0.016 C 
ATOM     44  C   UNL     1     -12.764  -1.414  34.534  0.00  0.00    +0.003 C 
ATOM     45  C   UNL     1     -11.642  -2.383  34.833  0.00  0.00    +0.016 C 
ENDBRANCH  28  38
ENDBRANCH  27  35
ENDBRANCH  25  27
ENDBRANCH  24  25
ENDBRANCH   1  24
TORSDOF 7
