REMARK  Name = =
REMARK  0 active torsions:
REMARK  status: ('A' for Active; 'I' for Inactive)
REMARK                            x       y       z     vdW  Elec       q    Type
REMARK                         _______ _______ _______ _____ _____    ______ ____
ROOT
ATOM      1  N   UNL     1      53.129 157.218  28.064  0.00  0.00    -0.268 NA
ATOM      2  C   UNL     1      52.407 157.181  29.129  0.00  0.00    +0.122 C 
ATOM      3  C   UNL     1      51.585 155.983  29.042  0.00  0.00    -0.020 C 
ATOM      4  C   UNL     1      51.853 155.332  27.896  0.00  0.00    +0.011 C 
ATOM      5  C   UNL     1      52.859 156.104  27.222  0.00  0.00    +0.076 C 
ATOM      6  C   UNL     1      53.306 155.675  26.054  0.00  0.00    +0.019 C 
ATOM      7  C   UNL     1      52.855 154.450  25.367  0.00  0.00    +0.002 C 
ATOM      8  C   UNL     1      51.816 153.701  26.116  0.00  0.00    +0.000 C 
ATOM      9  C   UNL     1      51.363 154.120  27.284  0.00  0.00    +0.001 C 
ATOM     10  C   UNL     1      50.621 155.608  30.095  0.00  0.00    +0.041 C 
ATOM     11  C   UNL     1      49.297 156.367  29.951  0.00  0.00    +0.077 C 
ATOM     12  N   UNL     1      49.575 157.749  30.132  0.00  0.00    -0.272 NA
ATOM     13  C   UNL     1      49.852 158.486  28.939  0.00  0.00    +0.072 C 
ATOM     14  C   UNL     1      50.644 159.692  29.279  0.00  0.00    +0.016 C 
ATOM     15  C   UNL     1      51.943 159.497  29.916  0.00  0.00    +0.004 C 
ATOM     16  C   UNL     1      52.337 158.109  30.283  0.00  0.00    +0.029 C 
ATOM     17  C   UNL     1      49.757 160.570  30.144  0.00  0.00    +0.003 C 
ATOM     18  C   UNL     1      49.181 159.825  31.301  0.00  0.00    +0.017 C 
ATOM     19  C   UNL     1      48.641 158.466  30.944  0.00  0.00    +0.072 C 
ENDROOT
TORSDOF 0
