REMARK  Name = =
REMARK  1 active torsions:
REMARK  status: ('A' for Active; 'I' for Inactive)
REMARK    1  A    between atoms: C_1  and  O_3
REMARK                            x       y       z     vdW  Elec       q    Type
REMARK                         _______ _______ _______ _____ _____    ______ ____
ROOT
ATOM      1  C   UNL     1      52.415 155.972  28.539  0.00  0.00    +0.415 C 
ATOM      2  O   UNL     1      52.995 157.068  28.709  0.00  0.00    -0.238 OA
ENDROOT
BRANCH   1   3
ATOM      3  O   UNL     1      53.176 154.825  28.390  0.00  0.00    -0.473 OA
ATOM      4  H   UNL     1      52.756 153.997  28.262  0.00  0.00    +0.296 HD
ENDBRANCH   1   3
TORSDOF 1
