REMARK  Name = =
REMARK  3 active torsions:
REMARK  status: ('A' for Active; 'I' for Inactive)
REMARK    1  A    between atoms: C_1  and  C_13
REMARK    2  A    between atoms: C_7  and  C_19
REMARK    3  A    between atoms: C_10  and  O_18
REMARK                            x       y       z     vdW  Elec       q    Type
REMARK                         _______ _______ _______ _____ _____    ______ ____
ROOT
ATOM      1  C   UNL     1      51.697 158.475  29.209  0.00  0.00    +0.032 C 
ATOM      2  C   UNL     1      50.428 158.876  29.568  0.00  0.00    +0.133 C 
ATOM      3  C   UNL     1      50.186 159.906  30.450  0.00  0.00    +0.019 C 
ATOM      4  C   UNL     1      51.272 160.561  30.996  0.00  0.00    -0.001 C 
ATOM      5  C   UNL     1      52.552 160.191  30.663  0.00  0.00    -0.000 C 
ATOM      6  C   UNL     1      52.750 159.155  29.775  0.00  0.00    +0.000 C 
ATOM      7  C   UNL     1      48.710 160.042  30.563  0.00  0.00    +0.095 C 
ATOM      8  C   UNL     1      48.229 158.684  30.141  0.00  0.00    +0.214 C 
ATOM      9  O   UNL     1      49.206 158.356  29.141  0.00  0.00    -0.475 OA
ENDROOT
BRANCH   1  13
ATOM     10  C   UNL     1      51.020 155.742  29.968  0.00  0.00    +0.402 C 
ATOM     11  O   UNL     1      50.722 154.547  30.289  0.00  0.00    -0.226 OA
ATOM     12  N   UNL     1      51.575 156.064  28.718  0.00  0.00    -0.239 N 
ATOM     13  C   UNL     1      51.914 157.364  28.267  0.00  0.00    +0.134 C 
ATOM     14  C   UNL     1      53.408 157.315  27.932  0.00  0.00    +0.167 C 
ATOM     15  O   UNL     1      53.581 156.432  26.873  0.00  0.00    -0.350 OA
ATOM     16  C   UNL     1      52.483 155.671  26.562  0.00  0.00    +0.164 C 
ATOM     17  C   UNL     1      51.864 154.984  27.790  0.00  0.00    +0.129 C 
BRANCH  10  18
ATOM     18  O   UNL     1      50.752 156.683  30.952  0.00  0.00    -0.466 OA
ATOM     19  H   UNL     1      50.941 157.588  30.799  0.00  0.00    +0.297 HD
ENDBRANCH  10  18
ENDBRANCH   1  13
BRANCH   7  20
ATOM     20  C   UNL     1      48.265 160.466  31.889  0.00  0.00    +0.042 C 
ATOM     21  C   UNL     1      47.038 160.229  32.291  0.00  0.00    +0.275 C 
ATOM     22  F   UNL     1      46.147 159.588  31.498  0.00  0.00    -0.172 F 
ATOM     23  F   UNL     1      46.601 160.622  33.530  0.00  0.00    -0.172 F 
ENDBRANCH   7  20
TORSDOF 3
