REMARK  Name = =
REMARK  3 active torsions:
REMARK  status: ('A' for Active; 'I' for Inactive)
REMARK    1  A    between atoms: C_1  and  C_13
REMARK    2  A    between atoms: C_7  and  C_19
REMARK    3  A    between atoms: C_10  and  O_18
REMARK                            x       y       z     vdW  Elec       q    Type
REMARK                         _______ _______ _______ _____ _____    ______ ____
ROOT
ATOM      1  C   UNL     1      63.068 167.459  37.982  0.00  0.00    +0.032 C 
ATOM      2  C   UNL     1      62.792 166.979  36.678  0.00  0.00    +0.133 C 
ATOM      3  C   UNL     1      61.944 167.607  35.811  0.00  0.00    +0.020 C 
ATOM      4  C   UNL     1      61.283 168.778  36.166  0.00  0.00    -0.001 C 
ATOM      5  C   UNL     1      61.522 169.268  37.414  0.00  0.00    -0.000 C 
ATOM      6  C   UNL     1      62.392 168.614  38.284  0.00  0.00    +0.000 C 
ATOM      7  C   UNL     1      61.914 166.832  34.515  0.00  0.00    +0.113 C 
ATOM      8  C   UNL     1      63.187 166.057  34.610  0.00  0.00    +0.216 C 
ATOM      9  O   UNL     1      63.276 165.843  36.017  0.00  0.00    -0.475 OA
ENDROOT
BRANCH   1  13
ATOM     10  C   UNL     1      61.960 165.045  39.326  0.00  0.00    +0.402 C 
ATOM     11  O   UNL     1      61.082 165.964  39.512  0.00  0.00    -0.226 OA
ATOM     12  N   UNL     1      63.267 165.308  39.087  0.00  0.00    -0.239 N 
ATOM     13  C   UNL     1      63.815 166.680  38.906  0.00  0.00    +0.134 C 
ATOM     14  C   UNL     1      63.793 167.042  40.406  0.00  0.00    +0.167 C 
ATOM     15  O   UNL     1      64.380 165.978  41.068  0.00  0.00    -0.350 OA
ATOM     16  C   UNL     1      65.166 165.105  40.352  0.00  0.00    +0.164 C 
ATOM     17  C   UNL     1      64.342 164.362  39.231  0.00  0.00    +0.129 C 
BRANCH  10  18
ATOM     18  O   UNL     1      61.392 163.748  39.405  0.00  0.00    -0.466 OA
ATOM     19  H   UNL     1      61.932 162.992  39.286  0.00  0.00    +0.297 HD
ENDBRANCH  10  18
ENDBRANCH   1  13
BRANCH   7  20
ATOM     20  C   UNL     1      60.682 166.017  34.443  0.00  0.00    +0.130 C 
ATOM     21  C   UNL     1      59.536 166.597  34.050  0.00  0.00    +0.292 C 
ATOM     22  F   UNL     1      59.480 167.904  33.728  0.00  0.00    -0.171 F 
ATOM     23  F   UNL     1      58.431 165.814  34.008  0.00  0.00    -0.171 F 
ATOM     24  N   UNL     1      60.703 164.653  34.776  0.00  0.00    -0.127 NA
ENDBRANCH   7  20
TORSDOF 3
