REMARK  Name = =
REMARK  5 active torsions:
REMARK  status: ('A' for Active; 'I' for Inactive)
REMARK    1  A    between atoms: C_1  and  C_13
REMARK    2  A    between atoms: C_7  and  C_19
REMARK    3  A    between atoms: C_10  and  O_18
REMARK    4  A    between atoms: C_19  and  N_23
REMARK    5  A    between atoms: N_23  and  C_24
REMARK                            x       y       z     vdW  Elec       q    Type
REMARK                         _______ _______ _______ _____ _____    ______ ____
ROOT
ATOM      1  C   UNL     1      63.015 166.748  37.913  0.00  0.00    +0.032 C 
ATOM      2  C   UNL     1      61.831 166.013  37.805  0.00  0.00    +0.133 C 
ATOM      3  C   UNL     1      61.823 164.645  37.591  0.00  0.00    +0.020 C 
ATOM      4  C   UNL     1      63.023 163.996  37.463  0.00  0.00    -0.001 C 
ATOM      5  C   UNL     1      64.222 164.699  37.552  0.00  0.00    -0.000 C 
ATOM      6  C   UNL     1      64.197 166.078  37.778  0.00  0.00    +0.000 C 
ATOM      7  C   UNL     1      60.431 164.097  37.763  0.00  0.00    +0.111 C 
ATOM      8  C   UNL     1      59.625 165.299  37.956  0.00  0.00    +0.216 C 
ATOM      9  O   UNL     1      60.521 166.424  37.880  0.00  0.00    -0.475 OA
ENDROOT
BRANCH   1  13
ATOM     10  C   UNL     1      62.712 168.684  35.680  0.00  0.00    +0.402 C 
ATOM     11  O   UNL     1      62.811 169.658  34.817  0.00  0.00    -0.226 OA
ATOM     12  N   UNL     1      63.007 169.050  37.002  0.00  0.00    -0.239 N 
ATOM     13  C   UNL     1      63.000 168.210  38.165  0.00  0.00    +0.134 C 
ATOM     14  C   UNL     1      64.379 168.490  38.857  0.00  0.00    +0.167 C 
ATOM     15  O   UNL     1      65.115 169.474  38.292  0.00  0.00    -0.350 OA
ATOM     16  C   UNL     1      64.349 170.671  38.283  0.00  0.00    +0.164 C 
ATOM     17  C   UNL     1      63.343 170.485  37.194  0.00  0.00    +0.129 C 
BRANCH  10  18
ATOM     18  O   UNL     1      62.335 167.499  35.138  0.00  0.00    -0.466 OA
ATOM     19  H   UNL     1      62.238 166.744  35.684  0.00  0.00    +0.297 HD
ENDBRANCH  10  18
ENDBRANCH   1  13
BRANCH   7  20
ATOM     20  C   UNL     1      60.026 163.010  36.946  0.00  0.00    +0.107 C 
ATOM     21  C   UNL     1      59.344 163.080  35.815  0.00  0.00    +0.290 C 
ATOM     22  F   UNL     1      59.010 161.953  35.106  0.00  0.00    -0.171 F 
ATOM     23  F   UNL     1      58.915 164.273  35.254  0.00  0.00    -0.171 F 
BRANCH  20  24
ATOM     24  N   UNL     1      60.339 161.633  37.359  0.00  0.00    -0.228 NA
BRANCH  24  25
ATOM     25  C   UNL     1      59.197 161.126  38.038  0.00  0.00    +0.187 C 
ATOM     26  C   UNL     1      59.130 159.623  38.247  0.00  0.00    +0.120 C 
ATOM     27  N   UNL     1      58.355 159.973  39.458  0.00  0.00    -0.301 N 
ATOM     28  C   UNL     1      59.188 161.158  39.512  0.00  0.00    +0.244 C 
ATOM     29  O   UNL     1      59.601 161.774  40.503  0.00  0.00    -0.273 OA
ATOM     30  H   UNL     1      57.618 159.583  39.982  0.00  0.00    +0.150 HD
ENDBRANCH  24  25
ENDBRANCH  20  24
ENDBRANCH   7  20
TORSDOF 5
