REMARK  Name = =
REMARK  6 active torsions:
REMARK  status: ('A' for Active; 'I' for Inactive)
REMARK    1  A    between atoms: C_1  and  C_11
REMARK    2  A    between atoms: C_1  and  N_23
REMARK    3  A    between atoms: C_5  and  C_17
REMARK    4  A    between atoms: C_14  and  O_22
REMARK    5  A    between atoms: N_23  and  C_24
REMARK    6  A    between atoms: C_24  and  C_29
REMARK                            x       y       z     vdW  Elec       q    Type
REMARK                         _______ _______ _______ _____ _____    ______ ____
ROOT
ATOM      1  C   UNL     1      60.540 163.489  37.525  0.00  0.00    +0.107 C 
ATOM      2  C   UNL     1      59.802 162.875  36.550  0.00  0.00    +0.290 C 
ATOM      3  F   UNL     1      60.173 162.815  35.245  0.00  0.00    -0.171 F 
ATOM      4  F   UNL     1      58.643 162.291  36.853  0.00  0.00    -0.171 F 
ENDROOT
BRANCH   1  11
ATOM      5  C   UNL     1      64.010 166.965  37.425  0.00  0.00    +0.032 C 
ATOM      6  C   UNL     1      63.140 165.960  37.040  0.00  0.00    +0.133 C 
ATOM      7  C   UNL     1      62.505 165.056  37.847  0.00  0.00    +0.020 C 
ATOM      8  C   UNL     1      62.783 165.193  39.215  0.00  0.00    -0.001 C 
ATOM      9  C   UNL     1      63.642 166.169  39.670  0.00  0.00    -0.000 C 
ATOM     10  C   UNL     1      64.240 167.029  38.797  0.00  0.00    +0.000 C 
ATOM     11  C   UNL     1      61.782 164.083  37.031  0.00  0.00    +0.111 C 
ATOM     12  C   UNL     1      61.597 164.884  35.731  0.00  0.00    +0.216 C 
ATOM     13  O   UNL     1      62.766 165.702  35.728  0.00  0.00    -0.475 OA
BRANCH   5  17
ATOM     14  C   UNL     1      62.928 169.895  36.645  0.00  0.00    +0.402 C 
ATOM     15  O   UNL     1      62.095 170.630  36.106  0.00  0.00    -0.226 OA
ATOM     16  N   UNL     1      63.558 168.870  35.894  0.00  0.00    -0.239 N 
ATOM     17  C   UNL     1      64.503 167.998  36.523  0.00  0.00    +0.134 C 
ATOM     18  C   UNL     1      65.686 167.707  35.654  0.00  0.00    +0.167 C 
ATOM     19  O   UNL     1      65.722 168.628  34.616  0.00  0.00    -0.350 OA
ATOM     20  C   UNL     1      64.657 168.566  33.772  0.00  0.00    +0.164 C 
ATOM     21  C   UNL     1      63.301 168.729  34.494  0.00  0.00    +0.129 C 
BRANCH  14  22
ATOM     22  O   UNL     1      63.226 170.104  38.003  0.00  0.00    -0.466 OA
ATOM     23  H   UNL     1      63.855 169.559  38.434  0.00  0.00    +0.297 HD
ENDBRANCH  14  22
ENDBRANCH   5  17
ENDBRANCH   1  11
BRANCH   1  24
ATOM     24  N   UNL     1      59.993 163.415  38.800  0.00  0.00    -0.226 NA
BRANCH  24  25
ATOM     25  C   UNL     1      60.107 162.265  39.634  0.00  0.00    +0.177 C 
ATOM     26  C   UNL     1      61.008 161.198  39.103  0.00  0.00    +0.122 C 
ATOM     27  N   UNL     1      61.966 161.410  40.154  0.00  0.00    -0.300 N 
ATOM     28  C   UNL     1      61.224 162.502  40.612  0.00  0.00    +0.245 C 
ATOM     29  O   UNL     1      61.375 163.367  41.491  0.00  0.00    -0.273 OA
ATOM     30  H   UNL     1      62.800 160.968  40.435  0.00  0.00    +0.150 HD
BRANCH  25  31
ATOM     31  C   UNL     1      58.879 161.713  40.175  0.00  0.00    -0.009 C 
ATOM     32  C   UNL     1      58.800 160.408  40.819  0.00  0.00    -0.006 C 
ATOM     33  C   UNL     1      57.483 160.319  41.296  0.00  0.00    -0.004 C 
ATOM     34  C   UNL     1      56.934 161.691  41.330  0.00  0.00    -0.015 C 
ATOM     35  C   UNL     1      57.902 162.561  40.883  0.00  0.00    +0.064 C 
ATOM     36  C   UNL     1      57.677 163.937  41.046  0.00  0.00    -0.018 C 
ATOM     37  C   UNL     1      56.523 164.425  41.621  0.00  0.00    -0.004 C 
ATOM     38  C   UNL     1      55.559 163.535  42.052  0.00  0.00    -0.001 C 
ATOM     39  C   UNL     1      55.775 162.185  41.903  0.00  0.00    -0.004 C 
ATOM     40  C   UNL     1      56.945 159.176  41.851  0.00  0.00    -0.000 C 
ATOM     41  C   UNL     1      57.728 158.061  41.959  0.00  0.00    -0.000 C 
ATOM     42  C   UNL     1      59.028 158.087  41.522  0.00  0.00    -0.000 C 
ATOM     43  C   UNL     1      59.550 159.248  40.961  0.00  0.00    -0.001 C 
ENDBRANCH  25  31
ENDBRANCH  24  25
ENDBRANCH   1  24
TORSDOF 6
