REMARK  Name = =
REMARK  0 active torsions:
REMARK  status: ('A' for Active; 'I' for Inactive)
REMARK                            x       y       z     vdW  Elec       q    Type
REMARK                         _______ _______ _______ _____ _____    ______ ____
ROOT
ATOM      1  N   UNL     1      52.337 155.168  29.140  0.00  0.00    -0.084 NA
ATOM      2  O   UNL     1      51.628 154.774  28.257  0.00  0.00    -0.152 OA
ATOM      3  H   UNL     1      53.188 155.615  28.926  0.00  0.00    +0.236 HD
ENDROOT
TORSDOF 0
