REMARK  Name = =
REMARK  3 active torsions:
REMARK  status: ('A' for Active; 'I' for Inactive)
REMARK    1  A    between atoms: C_2  and  N_16
REMARK    2  A    between atoms: N_16  and  C_17
REMARK    3  A    between atoms: C_20  and  C_23
REMARK                            x       y       z     vdW  Elec       q    Type
REMARK                         _______ _______ _______ _____ _____    ______ ____
ROOT
ATOM      1  C   UNL     1      50.339 155.243  29.035  0.00  0.00    +0.015 C 
ATOM      2  C   UNL     1      51.380 156.154  29.007  0.00  0.00    +0.054 C 
ATOM      3  C   UNL     1      51.078 157.419  29.455  0.00  0.00    +0.081 C 
ATOM      4  C   UNL     1      49.816 157.794  29.924  0.00  0.00    +0.062 C 
ATOM      5  N   UNL     1      49.409 159.081  30.435  0.00  0.00    -0.249 N 
ATOM      6  C   UNL     1      48.144 159.523  30.406  0.00  0.00    +0.172 C 
ATOM      7  N   UNL     1      48.137 160.757  30.967  0.00  0.00    -0.225 NA
ATOM      8  C   UNL     1      49.385 161.080  31.338  0.00  0.00    +0.113 C 
ATOM      9  C   UNL     1      50.200 160.027  31.007  0.00  0.00    +0.073 C 
ATOM     10  C   UNL     1      51.649 159.996  31.266  0.00  0.00    +0.134 C 
ATOM     11  N   UNL     1      52.456 159.481  30.183  0.00  0.00    -0.296 N 
ATOM     12  C   UNL     1      52.190 158.384  29.332  0.00  0.00    +0.249 C 
ATOM     13  O   UNL     1      52.922 158.132  28.341  0.00  0.00    -0.270 OA
ATOM     14  C   UNL     1      48.810 156.887  29.948  0.00  0.00    +0.015 C 
ATOM     15  C   UNL     1      49.084 155.618  29.501  0.00  0.00    +0.003 C 
ATOM     16  H   UNL     1      53.302 159.957  30.016  0.00  0.00    +0.150 HD
ENDROOT
BRANCH   2  17
ATOM     17  N   UNL     1      52.686 155.824  28.610  0.00  0.00    -0.312 N 
ATOM     18  H   UNL     1      53.436 156.195  29.130  0.00  0.00    +0.152 HD
BRANCH  17  19
ATOM     19  C   UNL     1      52.990 154.986  27.502  0.00  0.00    +0.048 C 
ATOM     20  C   UNL     1      53.405 155.515  26.309  0.00  0.00    +0.015 C 
ATOM     21  C   UNL     1      53.747 154.711  25.229  0.00  0.00    +0.006 C 
ATOM     22  C   UNL     1      53.669 153.321  25.361  0.00  0.00    +0.053 C 
ATOM     23  C   UNL     1      53.252 152.821  26.566  0.00  0.00    +0.006 C 
ATOM     24  C   UNL     1      52.910 153.629  27.645  0.00  0.00    +0.015 C 
BRANCH  22  25
ATOM     25  C   UNL     1      54.025 152.463  24.236  0.00  0.00    +0.243 C 
ATOM     26  O   UNL     1      54.022 151.223  24.376  0.00  0.00    -0.270 OA
ATOM     27  N   UNL     1      54.372 153.026  22.994  0.00  0.00    -0.325 N 
ATOM     28  H   UNL     1      54.611 152.442  22.238  0.00  0.00    +0.145 HD
ATOM     29  H   UNL     1      54.375 154.004  22.881  0.00  0.00    +0.145 HD
ENDBRANCH  22  25
ENDBRANCH  17  19
ENDBRANCH   2  17
TORSDOF 3
