REMARK  Name = =
REMARK  1 active torsions:
REMARK  status: ('A' for Active; 'I' for Inactive)
REMARK    1  A    between atoms: C_1  and  N_19
REMARK                            x       y       z     vdW  Elec       q    Type
REMARK                         _______ _______ _______ _____ _____    ______ ____
ROOT
ATOM      1  C   UNL     1      51.872 158.333  29.938  0.00  0.00    +0.147 C 
ATOM      2  C   UNL     1      53.345 158.118  29.811  0.00  0.00    +0.028 C 
ATOM      3  C   UNL     1      54.154 159.279  30.272  0.00  0.00    +0.002 C 
ATOM      4  C   UNL     1      55.479 159.418  29.553  0.00  0.00    +0.000 C 
ATOM      5  C   UNL     1      55.857 160.848  29.877  0.00  0.00    +0.000 C 
ATOM      6  C   UNL     1      54.554 161.575  30.173  0.00  0.00    +0.000 C 
ATOM      7  C   UNL     1      53.487 160.591  29.841  0.00  0.00    +0.000 C 
ATOM      8  C   UNL     1      52.215 160.736  30.540  0.00  0.00    +0.003 C 
ATOM      9  C   UNL     1      52.168 161.643  31.706  0.00  0.00    +0.004 C 
ATOM     10  C   UNL     1      50.790 161.844  32.223  0.00  0.00    +0.022 C 
ATOM     11  C   UNL     1      49.796 160.906  31.710  0.00  0.00    -0.042 C 
ATOM     12  C   UNL     1      48.520 161.111  32.061  0.00  0.00    +0.029 C 
ATOM     13  C   UNL     1      47.452 160.237  31.604  0.00  0.00    +0.173 C 
ATOM     14  O   UNL     1      46.250 160.457  31.903  0.00  0.00    -0.291 OA
ATOM     15  C   UNL     1      47.754 159.049  30.766  0.00  0.00    +0.069 C 
ATOM     16  C   UNL     1      49.170 158.612  31.165  0.00  0.00    +0.012 C 
ATOM     17  C   UNL     1      50.060 159.749  30.837  0.00  0.00    +0.021 C 
ATOM     18  C   UNL     1      51.532 159.434  30.904  0.00  0.00    +0.030 C 
ENDROOT
BRANCH   1  19
ATOM     19  N   UNL     1      51.272 158.503  28.662  0.00  0.00    -0.059 NA
ATOM     20  O   UNL     1      51.119 159.524  28.106  0.00  0.00    -0.148 OA
ENDBRANCH   1  19
TORSDOF 1
