REMARK  Name = =
REMARK  1 active torsions:
REMARK  status: ('A' for Active; 'I' for Inactive)
REMARK    1  A    between atoms: S_20  and  O_23
REMARK                            x       y       z     vdW  Elec       q    Type
REMARK                         _______ _______ _______ _____ _____    ______ ____
ROOT
ATOM      1  C   UNL     1      52.132 158.448  29.792  0.00  0.00    +0.152 C 
ATOM      2  C   UNL     1      53.637 158.521  29.910  0.00  0.00    +0.035 C 
ATOM      3  C   UNL     1      54.045 159.949  29.771  0.00  0.00    +0.003 C 
ATOM      4  C   UNL     1      55.500 160.209  29.871  0.00  0.00    +0.000 C 
ATOM      5  C   UNL     1      55.657 161.429  30.766  0.00  0.00    +0.000 C 
ATOM      6  C   UNL     1      54.225 161.918  31.031  0.00  0.00    +0.000 C 
ATOM      7  C   UNL     1      53.458 160.665  30.994  0.00  0.00    +0.000 C 
ATOM      8  C   UNL     1      52.002 160.753  30.791  0.00  0.00    +0.003 C 
ATOM      9  C   UNL     1      51.548 161.705  29.733  0.00  0.00    +0.004 C 
ATOM     10  C   UNL     1      50.065 161.867  29.758  0.00  0.00    +0.022 C 
ATOM     11  C   UNL     1      49.325 160.673  30.182  0.00  0.00    -0.042 C 
ATOM     12  C   UNL     1      48.017 160.833  30.400  0.00  0.00    +0.029 C 
ATOM     13  C   UNL     1      47.155 159.735  30.825  0.00  0.00    +0.173 C 
ATOM     14  O   UNL     1      45.975 159.895  31.177  0.00  0.00    -0.291 OA
ATOM     15  C   UNL     1      47.762 158.370  30.824  0.00  0.00    +0.069 C 
ATOM     16  C   UNL     1      49.170 158.531  31.354  0.00  0.00    +0.012 C 
ATOM     17  C   UNL     1      49.950 159.365  30.364  0.00  0.00    +0.022 C 
ATOM     18  C   UNL     1      51.410 159.393  30.684  0.00  0.00    +0.036 C 
ATOM     19  N   UNL     1      51.751 157.098  30.239  0.00  0.00    -0.165 NA
ATOM     20  S   UNL     1      51.845 155.960  28.965  0.00  0.00    +0.046 S 
ATOM     21  O   UNL     1      52.147 156.575  27.650  0.00  0.00    -0.060 OA
ATOM     22  O   UNL     1      50.557 155.195  28.844  0.00  0.00    -0.056 OA
ATOM     23  N   UNL     1      51.767 158.647  28.436  0.00  0.00    -0.034 NA
ATOM     24  O   UNL     1      52.410 158.275  27.500  0.00  0.00    -0.095 OA
ATOM     25  H   UNL     1      50.793 157.124  30.589  0.00  0.00    +0.150 HD
ENDROOT
BRANCH  20  26
ATOM     26  O   UNL     1      53.038 154.829  29.400  0.00  0.00    -0.259 OA
ATOM     27  H   UNL     1      53.893 155.279  29.490  0.00  0.00    +0.244 HD
ENDBRANCH  20  26
TORSDOF 1
