REMARK  Name = =
REMARK  7 active torsions:
REMARK  status: ('A' for Active; 'I' for Inactive)
REMARK    1  A    between atoms: C_1  and  N_19
REMARK    2  A    between atoms: C_1  and  N_21
REMARK    3  A    between atoms: N_21  and  S_22
REMARK    4  A    between atoms: N_21  and  N_26
REMARK    5  A    between atoms: S_22  and  O_25
REMARK    6  A    between atoms: N_26  and  S_27
REMARK    7  A    between atoms: S_27  and  N_30
REMARK                            x       y       z     vdW  Elec       q    Type
REMARK                         _______ _______ _______ _____ _____    ______ ____
ROOT
ATOM      1  C   UNL     1      50.966 159.650  31.052  0.00  0.00    +0.205 C 
ATOM      2  C   UNL     1      50.416 161.039  31.262  0.00  0.00    +0.044 C 
ATOM      3  C   UNL     1      48.959 161.071  31.608  0.00  0.00    +0.003 C 
ATOM      4  C   UNL     1      48.309 162.175  30.774  0.00  0.00    +0.000 C 
ATOM      5  C   UNL     1      46.913 161.745  30.463  0.00  0.00    +0.000 C 
ATOM      6  C   UNL     1      46.846 160.321  30.984  0.00  0.00    +0.000 C 
ATOM      7  C   UNL     1      48.247 159.841  31.061  0.00  0.00    +0.000 C 
ATOM      8  C   UNL     1      48.893 159.545  29.743  0.00  0.00    +0.004 C 
ATOM      9  C   UNL     1      48.041 158.790  28.783  0.00  0.00    +0.004 C 
ATOM     10  C   UNL     1      47.735 157.383  29.235  0.00  0.00    +0.022 C 
ATOM     11  C   UNL     1      49.002 156.763  29.651  0.00  0.00    -0.042 C 
ATOM     12  C   UNL     1      49.087 155.424  29.524  0.00  0.00    +0.029 C 
ATOM     13  C   UNL     1      50.270 154.677  29.891  0.00  0.00    +0.173 C 
ATOM     14  O   UNL     1      50.251 153.456  30.170  0.00  0.00    -0.291 OA
ATOM     15  C   UNL     1      51.574 155.372  29.947  0.00  0.00    +0.069 C 
ATOM     16  C   UNL     1      51.393 156.823  29.508  0.00  0.00    +0.012 C 
ATOM     17  C   UNL     1      50.185 157.440  30.189  0.00  0.00    +0.022 C 
ATOM     18  C   UNL     1      50.235 158.922  29.977  0.00  0.00    +0.045 C 
ENDROOT
BRANCH   1  19
ATOM     19  N   UNL     1      50.890 158.983  32.325  0.00  0.00    -0.042 NA
ATOM     20  O   UNL     1      50.142 158.079  32.540  0.00  0.00    -0.147 OA
ENDBRANCH   1  19
BRANCH   1  21
ATOM     21  N   UNL     1      52.362 159.822  30.645  0.00  0.00    -0.059 NA
BRANCH  21  22
ATOM     22  S   UNL     1      52.886 161.441  30.956  0.00  0.00    +0.064 S 
ATOM     23  O   UNL     1      52.368 162.314  29.853  0.00  0.00    -0.054 OA
ATOM     24  O   UNL     1      52.367 161.930  32.282  0.00  0.00    -0.054 OA
BRANCH  22  25
ATOM     25  O   UNL     1      54.561 161.485  30.880  0.00  0.00    -0.257 OA
ATOM     26  H   UNL     1      54.931 160.928  31.583  0.00  0.00    +0.244 HD
ENDBRANCH  22  25
ENDBRANCH  21  22
BRANCH  21  27
ATOM     27  N   UNL     1      52.493 159.602  29.270  0.00  0.00    -0.087 NA
ATOM     28  H   UNL     1      52.846 160.454  28.835  0.00  0.00    +0.171 HD
BRANCH  27  29
ATOM     29  S   UNL     1      53.564 158.317  28.907  0.00  0.00    +0.126 S 
ATOM     30  O   UNL     1      54.881 158.833  28.393  0.00  0.00    -0.137 OA
ATOM     31  O   UNL     1      53.809 157.538  30.188  0.00  0.00    -0.137 OA
BRANCH  29  32
ATOM     32  N   UNL     1      52.908 157.260  27.728  0.00  0.00    -0.167 N 
ATOM     33  C   UNL     1      53.589 156.910  26.527  0.00  0.00    +0.320 C 
ATOM     34  O   UNL     1      54.745 157.405  26.317  0.00  0.00    -0.263 OA
ATOM     35  H   UNL     1      52.016 156.876  27.889  0.00  0.00    +0.178 HD
ENDBRANCH  29  32
ENDBRANCH  27  29
ENDBRANCH  21  27
ENDBRANCH   1  21
TORSDOF 7
