REMARK  Name = =
REMARK  9 active torsions:
REMARK  status: ('A' for Active; 'I' for Inactive)
REMARK    1  A    between atoms: C_1  and  N_19
REMARK    2  A    between atoms: C_1  and  N_21
REMARK    3  A    between atoms: C_5  and  S_33
REMARK    4  A    between atoms: N_21  and  S_22
REMARK    5  A    between atoms: N_21  and  N_26
REMARK    6  A    between atoms: S_22  and  O_25
REMARK    7  A    between atoms: N_26  and  S_27
REMARK    8  A    between atoms: S_27  and  N_30
REMARK    9  A    between atoms: S_33  and  S_34
REMARK                            x       y       z     vdW  Elec       q    Type
REMARK                         _______ _______ _______ _____ _____    ______ ____
ROOT
ATOM      1  C   UNL     1      49.522 159.394  29.815  0.00  0.00    +0.205 C 
ATOM      2  C   UNL     1      49.196 157.934  29.550  0.00  0.00    +0.044 C 
ATOM      3  C   UNL     1      50.133 157.036  30.314  0.00  0.00    +0.004 C 
ATOM      4  C   UNL     1      49.850 155.577  29.939  0.00  0.00    +0.012 C 
ATOM      5  C   UNL     1      51.149 155.030  29.467  0.00  0.00    +0.058 C 
ATOM      6  C   UNL     1      52.032 156.165  29.083  0.00  0.00    +0.012 C 
ATOM      7  C   UNL     1      51.536 157.344  29.904  0.00  0.00    +0.001 C 
ATOM      8  C   UNL     1      51.602 158.537  28.960  0.00  0.00    +0.004 C 
ATOM      9  C   UNL     1      53.046 158.791  28.604  0.00  0.00    +0.004 C 
ATOM     10  C   UNL     1      53.736 159.039  29.938  0.00  0.00    +0.022 C 
ATOM     11  C   UNL     1      53.131 160.331  30.408  0.00  0.00    -0.042 C 
ATOM     12  C   UNL     1      53.937 161.363  30.454  0.00  0.00    +0.029 C 
ATOM     13  C   UNL     1      53.413 162.638  30.899  0.00  0.00    +0.173 C 
ATOM     14  O   UNL     1      53.951 163.703  30.555  0.00  0.00    -0.291 OA
ATOM     15  C   UNL     1      52.221 162.560  31.774  0.00  0.00    +0.069 C 
ATOM     16  C   UNL     1      51.221 161.712  30.968  0.00  0.00    +0.012 C 
ATOM     17  C   UNL     1      51.696 160.299  30.763  0.00  0.00    +0.022 C 
ATOM     18  C   UNL     1      50.950 159.702  29.605  0.00  0.00    +0.045 C 
ENDROOT
BRANCH   1  19
ATOM     19  N   UNL     1      48.807 160.108  28.752  0.00  0.00    -0.042 NA
ATOM     20  O   UNL     1      49.378 160.925  28.093  0.00  0.00    -0.147 OA
ENDBRANCH   1  19
BRANCH   1  21
ATOM     21  N   UNL     1      48.928 159.892  31.036  0.00  0.00    -0.059 NA
BRANCH  21  22
ATOM     22  S   UNL     1      47.250 160.030  30.876  0.00  0.00    +0.064 S 
ATOM     23  O   UNL     1      46.473 159.717  32.098  0.00  0.00    -0.054 OA
ATOM     24  O   UNL     1      46.965 161.504  30.584  0.00  0.00    -0.054 OA
BRANCH  22  25
ATOM     25  O   UNL     1      46.678 159.164  29.576  0.00  0.00    -0.257 OA
ATOM     26  H   UNL     1      46.840 158.219  29.721  0.00  0.00    +0.244 HD
ENDBRANCH  22  25
ENDBRANCH  21  22
BRANCH  21  27
ATOM     27  N   UNL     1      49.430 159.277  32.146  0.00  0.00    -0.087 NA
ATOM     28  H   UNL     1      50.440 159.221  32.015  0.00  0.00    +0.171 HD
BRANCH  27  29
ATOM     29  S   UNL     1      49.182 159.920  33.669  0.00  0.00    +0.126 S 
ATOM     30  O   UNL     1      49.674 158.880  34.683  0.00  0.00    -0.137 OA
ATOM     31  O   UNL     1      47.761 160.157  34.052  0.00  0.00    -0.137 OA
BRANCH  29  32
ATOM     32  N   UNL     1      50.173 161.301  33.949  0.00  0.00    -0.167 N 
ATOM     33  C   UNL     1      49.573 162.568  34.182  0.00  0.00    +0.320 C 
ATOM     34  O   UNL     1      48.324 162.607  34.166  0.00  0.00    -0.263 OA
ATOM     35  H   UNL     1      51.154 161.213  33.948  0.00  0.00    +0.178 HD
ENDBRANCH  29  32
ENDBRANCH  27  29
ENDBRANCH  21  27
ENDBRANCH   1  21
BRANCH   5  36
ATOM     36  S   UNL     1      51.038 153.889  28.082  0.00  0.00    -0.087 S 
BRANCH  36  37
ATOM     37  S   UNL     1      51.714 151.959  28.565  0.00  0.00    -0.110 S 
ATOM     38  H   UNL     1      51.601 151.153  27.475  0.00  0.00    +0.114 HD
ENDBRANCH  36  37
ENDBRANCH   5  36
TORSDOF 9
