MODEL 1
REMARK VINA RESULT:    -8.652      0.000      0.000
REMARK INTER + INTRA:         -13.894
REMARK INTER:                 -13.709
REMARK INTRA:                  -0.185
REMARK UNBOUND:                -0.185
REMARK  Name = =
REMARK  14 active torsions:
REMARK  status: ('A' for Active; 'I' for Inactive)
REMARK    1  A    between atoms: S_6  and  N_16
REMARK    2  A    between atoms: S_6  and  C_24
REMARK    3  A    between atoms: C_8  and  O_28
REMARK    4  A    between atoms: C_12  and  C_30
REMARK    5  A    between atoms: C_13  and  N_23
REMARK    6  A    between atoms: C_14  and  O_27
REMARK    7  A    between atoms: N_16  and  C_17
REMARK    8  A    between atoms: C_17  and  N_18
REMARK    9  A    between atoms: N_21  and  O_22
REMARK   10  A    between atoms: N_25  and  O_26
REMARK   11  A    between atoms: O_28  and  O_29
REMARK   12  A    between atoms: C_30  and  C_31
REMARK   13  A    between atoms: C_30  and  C_36
REMARK   14  A    between atoms: C_31  and  C_33
REMARK                            x       y       z     vdW  Elec       q    Type
REMARK                         _______ _______ _______ _____ _____    ______ ____
ROOT
ATOM      1  C   UNL     1       1.675  -4.067  28.621  0.00  0.00    +0.017 C 
ATOM      2  C   UNL     1       0.559  -4.898  28.579  0.00  0.00    -0.019 C 
ATOM      3  C   UNL     1      -0.073  -4.875  27.250  0.00  0.00    +0.030 C 
ATOM      4  C   UNL     1      -0.492  -3.403  27.540  0.00  0.00    +0.046 C 
ATOM      5  C   UNL     1       0.663  -2.572  27.850  0.00  0.00    +0.174 C 
ATOM      6  S   UNL     1       2.243  -3.042  27.130  0.00  0.00    -0.077 S 
ATOM      7  C   UNL     1       1.820  -2.531  25.422  0.00  0.00    +0.104 C 
ATOM      8  C   UNL     1       2.013  -1.116  25.196  0.00  0.00    +0.221 C 
ATOM      9  N   UNL     1       2.287  -0.464  26.373  0.00  0.00    -0.243 NA
ATOM     10  C   UNL     1       1.616  -1.401  27.168  0.00  0.00    +0.207 C 
ATOM     11  O   UNL     1       0.434  -1.706  26.674  0.00  0.00    -0.325 OA
ATOM     12  C   UNL     1       0.020  -5.593  29.605  0.00  0.00    -0.000 C 
ATOM     13  C   UNL     1       0.666  -5.440  30.809  0.00  0.00    +0.072 C 
ATOM     14  C   UNL     1       1.759  -4.650  30.923  0.00  0.00    +0.147 C 
ATOM     15  C   UNL     1       2.254  -3.972  29.824  0.00  0.00    +0.043 C 
ATOM     16  H   UNL     1       1.877   0.469  26.420  0.00  0.00    +0.128 HD
ENDROOT
BRANCH  13  17
ATOM     17  N   UNL     1       0.191  -6.066  31.986  0.00  0.00    -0.355 N 
ATOM     18  H   UNL     1      -0.014  -5.524  32.782  0.00  0.00    +0.142 HD
ATOM     19  H   UNL     1       0.064  -7.042  32.008  0.00  0.00    +0.142 HD
ENDBRANCH  13  17
BRANCH   6  20
ATOM     20  C   UNL     1       3.223  -4.552  26.582  0.00  0.00    +0.162 C 
ATOM     21  N   UNL     1       3.037  -5.385  25.716  0.00  0.00    -0.079 NA
BRANCH  21  22
ATOM     22  O   UNL     1       2.022  -5.510  24.818  0.00  0.00    -0.408 OA
ATOM     23  H   UNL     1       1.995  -4.958  24.062  0.00  0.00    +0.328 HD
ENDBRANCH  21  22
ENDBRANCH   6  20
BRANCH  14  24
ATOM     24  O   UNL     1       2.465  -4.451  32.121  0.00  0.00    -0.504 OA
ATOM     25  H   UNL     1       2.105  -4.750  32.932  0.00  0.00    +0.292 HD
ENDBRANCH  14  24
BRANCH   6  26
ATOM     26  N   UNL     1       4.075  -2.272  27.686  0.00  0.00    -0.160 NA
BRANCH  26  27
ATOM     27  C   UNL     1       4.889  -2.557  26.893  0.00  0.00    +0.193 C 
BRANCH  27  28
ATOM     28  N   UNL     1       6.135  -2.018  26.898  0.00  0.00    -0.272 N 
ATOM     29  C   UNL     1       6.449  -1.240  25.762  0.00  0.00    +0.324 C 
ATOM     30  O   UNL     1       5.565  -1.146  24.897  0.00  0.00    -0.251 OA
ATOM     31  N   UNL     1       7.721  -0.643  25.699  0.00  0.00    -0.181 N 
ATOM     32  H   UNL     1       6.770  -2.158  27.637  0.00  0.00    +0.152 HD
ATOM     33  H   UNL     1       8.390  -0.747  26.414  0.00  0.00    +0.184 HD
BRANCH  31  34
ATOM     34  O   UNL     1       7.957   0.079  24.594  0.00  0.00    -0.294 OA
ATOM     35  H   UNL     1       7.119   0.429  24.252  0.00  0.00    +0.241 HD
ENDBRANCH  31  34
ENDBRANCH  27  28
ENDBRANCH  26  27
ENDBRANCH   6  26
BRANCH   8  36
ATOM     36  O   UNL     1       0.796  -0.588  24.681  0.00  0.00    -0.209 OA
BRANCH  36  37
ATOM     37  O   UNL     1       0.119  -1.455  23.999  0.00  0.00    -0.248 OA
ATOM     38  H   UNL     1       0.541  -2.326  24.073  0.00  0.00    +0.253 HD
ENDBRANCH  36  37
ENDBRANCH   8  36
BRANCH  12  39
ATOM     39  C   UNL     1      -1.204  -6.397  29.439  0.00  0.00    +0.089 C 
BRANCH  39  40
ATOM     40  C   UNL     1      -1.135  -7.826  29.572  0.00  0.00    +0.110 C 
ATOM     41  N   UNL     1      -0.249  -8.471  28.817  0.00  0.00    -0.298 NA
ATOM     42  H   UNL     1       0.336  -7.967  28.205  0.00  0.00    +0.187 HD
BRANCH  40  43
ATOM     43  C   UNL     1      -1.925  -8.675  30.417  0.00  0.00    +0.256 C 
ATOM     44  O   UNL     1      -1.618  -8.911  31.595  0.00  0.00    -0.269 OA
ATOM     45  N   UNL     1      -3.128  -9.313  29.960  0.00  0.00    -0.324 N 
ATOM     46  H   UNL     1      -3.438  -9.175  29.036  0.00  0.00    +0.145 HD
ATOM     47  H   UNL     1      -3.642  -9.889  30.571  0.00  0.00    +0.145 HD
ENDBRANCH  40  43
ENDBRANCH  39  40
BRANCH  39  48
ATOM     48  C   UNL     1      -2.318  -5.819  30.229  0.00  0.00    -0.016 C 
ATOM     49  C   UNL     1      -2.984  -4.752  29.843  0.00  0.00    -0.004 C 
ENDBRANCH  39  48
ENDBRANCH  12  39
TORSDOF 14
ENDMDL
