REMARK  Name = =
REMARK  6 active torsions:
REMARK  status: ('A' for Active; 'I' for Inactive)
REMARK    1  A    between atoms: C_1  and  O_28
REMARK    2  A    between atoms: C_4  and  N_7
REMARK    3  A    between atoms: C_4  and  C_16
REMARK    4  A    between atoms: C_21  and  N_22
REMARK    5  A    between atoms: O_28  and  P_30
REMARK    6  A    between atoms: P_30  and  O_32
REMARK                            x       y       z     vdW  Elec       q    Type
REMARK                         _______ _______ _______ _____ _____    ______ ____
ROOT
ATOM      1  C   UNL     1      -8.492  -3.459  21.458  0.00  0.00    +0.125 C 
ATOM      2  C   UNL     1      -7.904  -3.194  20.088  0.00  0.00    +0.032 C 
ATOM      3  C   UNL     1      -6.725  -2.234  20.180  0.00  0.00    +0.021 C 
ATOM      4  C   UNL     1      -7.130  -0.842  20.470  0.00  0.00    +0.065 C 
ATOM      5  C   UNL     1      -8.370  -0.965  21.374  0.00  0.00    +0.021 C 
ATOM      6  C   UNL     1      -8.246  -2.189  22.255  0.00  0.00    +0.032 C 
ENDROOT
BRANCH   4   7
ATOM      7  N   UNL     1      -6.117  -0.194  21.282  0.00  0.00    -0.272 N 
ATOM      8  C   UNL     1      -6.249   0.456  22.460  0.00  0.00    +0.168 C 
ATOM      9  N   UNL     1      -5.059   0.921  22.898  0.00  0.00    -0.226 NA
ATOM     10  C   UNL     1      -4.141   0.570  21.995  0.00  0.00    +0.096 C 
ATOM     11  C   UNL     1      -4.786  -0.116  21.001  0.00  0.00    +0.070 C 
ATOM     12  C   UNL     1      -3.996  -0.571  19.964  0.00  0.00    +0.016 C 
ATOM     13  C   UNL     1      -2.613  -0.345  19.930  0.00  0.00    +0.001 C 
ATOM     14  C   UNL     1      -2.032   0.350  20.957  0.00  0.00    +0.002 C 
ATOM     15  C   UNL     1      -2.800   0.812  22.000  0.00  0.00    +0.020 C 
ENDBRANCH   4   7
BRANCH   4  16
ATOM     16  C   UNL     1      -7.422   0.049  19.313  0.00  0.00    +0.045 C 
ATOM     17  C   UNL     1      -7.554   1.487  19.796  0.00  0.00    +0.068 C 
ATOM     18  C   UNL     1      -9.043   1.492  20.074  0.00  0.00    +0.153 C 
ATOM     19  O   UNL     1      -9.653   2.062  21.007  0.00  0.00    -0.296 OA
ATOM     20  C   UNL     1      -9.549   0.669  18.977  0.00  0.00    +0.086 C 
ATOM     21  C   UNL     1      -8.615  -0.162  18.530  0.00  0.00    +0.110 C 
BRANCH  21  22
ATOM     22  N   UNL     1      -8.904  -1.040  17.441  0.00  0.00    -0.165 N 
ATOM     23  N   UNL     1     -10.110  -1.374  17.037  0.00  0.00    -0.156 NA
ATOM     24  C   UNL     1     -10.116  -2.167  15.977  0.00  0.00    +0.187 C 
ATOM     25  N   UNL     1      -8.823  -2.359  15.674  0.00  0.00    -0.249 N 
ATOM     26  C   UNL     1      -8.075  -1.658  16.585  0.00  0.00    +0.328 C 
ATOM     27  O   UNL     1      -6.828  -1.625  16.576  0.00  0.00    -0.250 OA
ATOM     28  H   UNL     1      -8.474  -2.904  14.932  0.00  0.00    +0.158 HD
ENDBRANCH  21  22
ENDBRANCH   4  16
BRANCH   1  29
ATOM     29  O   UNL     1      -9.853  -3.672  21.302  0.00  0.00    -0.289 OA
BRANCH  29  31
ATOM     30  S   UNL     1     -11.941  -5.474  21.912  0.00  0.00    +0.039 S 
ATOM     31  P   UNL     1     -10.254  -5.176  21.956  0.00  0.00    +0.400 P 
ATOM     32  O   UNL     1      -9.724  -5.313  23.375  0.00  0.00    -0.245 OA
BRANCH  31  33
ATOM     33  O   UNL     1      -9.503  -6.361  20.979  0.00  0.00    -0.316 OA
ATOM     34  H   UNL     1      -9.832  -6.286  20.069  0.00  0.00    +0.221 HD
ENDBRANCH  31  33
ENDBRANCH  29  31
ENDBRANCH   1  29
TORSDOF 6
