REMARK  Name = =
REMARK  3 active torsions:
REMARK  status: ('A' for Active; 'I' for Inactive)
REMARK    1  A    between atoms: C_11  and  C_15
REMARK    2  A    between atoms: C_19  and  C_23
REMARK    3  A    between atoms: C_23  and  O_25
REMARK                            x       y       z     vdW  Elec       q    Type
REMARK                         _______ _______ _______ _____ _____    ______ ____
ROOT
ATOM      1  N   UNL     1     -14.479 -43.972  27.532  0.00  0.00    -0.245 NA
ATOM      2  C   UNL     1     -15.246 -43.292  28.389  0.00  0.00    +0.081 C 
ATOM      3  C   UNL     1     -14.884 -43.289  29.736  0.00  0.00    +0.018 C 
ATOM      4  C   UNL     1     -13.757 -43.985  30.117  0.00  0.00    +0.003 C 
ATOM      5  C   UNL     1     -13.011 -44.666  29.181  0.00  0.00    +0.018 C 
ATOM      6  C   UNL     1     -13.378 -44.662  27.849  0.00  0.00    +0.081 C 
ATOM      7  C   UNL     1     -12.623 -45.350  26.924  0.00  0.00    +0.019 C 
ATOM      8  C   UNL     1     -11.491 -46.060  27.263  0.00  0.00    +0.002 C 
ATOM      9  C   UNL     1     -11.137 -46.054  28.594  0.00  0.00    +0.000 C 
ATOM     10  C   UNL     1     -11.880 -45.372  29.537  0.00  0.00    +0.001 C 
ATOM     11  C   UNL     1     -15.668 -42.588  30.648  0.00  0.00    +0.004 C 
ATOM     12  C   UNL     1     -16.807 -41.891  30.238  0.00  0.00    +0.000 C 
ATOM     13  C   UNL     1     -17.153 -41.902  28.909  0.00  0.00    +0.002 C 
ATOM     14  C   UNL     1     -16.374 -42.597  28.005  0.00  0.00    +0.019 C 
ENDROOT
BRANCH  11  15
ATOM     15  C   UNL     1     -15.270 -42.583  32.051  0.00  0.00    +0.030 C 
ATOM     16  C   UNL     1     -14.968 -43.742  32.721  0.00  0.00    +0.167 C 
ATOM     17  C   UNL     1     -14.600 -43.719  34.024  0.00  0.00    +0.168 C 
ATOM     18  C   UNL     1     -14.519 -42.531  34.713  0.00  0.00    +0.038 C 
ATOM     19  C   UNL     1     -14.816 -41.346  34.075  0.00  0.00    +0.078 C 
ATOM     20  C   UNL     1     -15.187 -41.384  32.755  0.00  0.00    +0.009 C 
ATOM     21  F   UNL     1     -14.308 -44.898  34.644  0.00  0.00    -0.202 F 
ATOM     22  F   UNL     1     -15.053 -44.929  32.023  0.00  0.00    -0.202 F 
BRANCH  19  23
ATOM     23  C   UNL     1     -14.732 -40.086  34.798  0.00  0.00    +0.338 C 
ATOM     24  O   UNL     1     -15.055 -38.984  34.319  0.00  0.00    -0.245 OA
BRANCH  23  25
ATOM     25  O   UNL     1     -14.266 -40.071  36.114  0.00  0.00    -0.477 OA
ATOM     26  H   UNL     1     -14.008 -40.871  36.529  0.00  0.00    +0.295 HD
ENDBRANCH  23  25
ENDBRANCH  19  23
ENDBRANCH  11  15
TORSDOF 3
