REMARK  Name = =
REMARK  4 active torsions:
REMARK  status: ('A' for Active; 'I' for Inactive)
REMARK    1  A    between atoms: C_1  and  O_10
REMARK    2  A    between atoms: C_3  and  O_9
REMARK    3  A    between atoms: C_4  and  C_7
REMARK    4  A    between atoms: O_10  and  C_16
REMARK                            x       y       z     vdW  Elec       q    Type
REMARK                         _______ _______ _______ _____ _____    ______ ____
ROOT
ATOM      1  C   UNL     1      52.841 154.598  26.857  0.00  0.00    +0.143 C 
ATOM      2  C   UNL     1      52.286 154.311  28.079  0.00  0.00    +0.074 C 
ATOM      3  C   UNL     1      51.986 155.303  29.032  0.00  0.00    +0.140 C 
ATOM      4  C   UNL     1      52.259 156.616  28.732  0.00  0.00    +0.076 C 
ATOM      5  C   UNL     1      52.818 156.914  27.502  0.00  0.00    +0.009 C 
ATOM      6  C   UNL     1      53.101 155.916  26.584  0.00  0.00    +0.037 C 
ENDROOT
BRANCH   4   7
ATOM      7  C   UNL     1      51.979 157.691  29.660  0.00  0.00    +0.237 C 
ATOM      8  O   UNL     1      51.969 158.871  29.244  0.00  0.00    -0.283 OA
ENDBRANCH   4   7
BRANCH   3   9
ATOM      9  O   UNL     1      51.426 154.933  30.246  0.00  0.00    -0.505 OA
ATOM     10  H   UNL     1      51.250 154.030  30.425  0.00  0.00    +0.292 HD
ENDBRANCH   3   9
BRANCH   1  11
ATOM     11  O   UNL     1      53.115 153.605  25.961  0.00  0.00    -0.461 OA
BRANCH  11  17
ATOM     12  N   UNL     1      53.673 152.584  23.918  0.00  0.00    -0.260 NA
ATOM     13  C   UNL     1      53.584 151.294  24.581  0.00  0.00    +0.104 C 
ATOM     14  C   UNL     1      54.960 150.903  25.016  0.00  0.00    +0.160 C 
ATOM     15  O   UNL     1      55.864 151.955  24.979  0.00  0.00    -0.347 OA
ATOM     16  C   UNL     1      55.376 153.110  25.584  0.00  0.00    +0.203 C 
ATOM     17  C   UNL     1      54.053 153.555  24.950  0.00  0.00    +0.255 C 
ATOM     18  H   UNL     1      52.771 152.835  23.512  0.00  0.00    +0.127 HD
ENDBRANCH  11  17
ENDBRANCH   1  11
TORSDOF 4
