REMARK  Name = =
REMARK  6 active torsions:
REMARK  status: ('A' for Active; 'I' for Inactive)
REMARK    1  A    between atoms: C_1  and  O_9
REMARK    2  A    between atoms: C_3  and  O_16
REMARK    3  A    between atoms: C_4  and  C_7
REMARK    4  A    between atoms: O_9  and  C_15
REMARK    5  A    between atoms: O_16  and  N_17
REMARK    6  A    between atoms: C_18  and  C_20
REMARK                            x       y       z     vdW  Elec       q    Type
REMARK                         _______ _______ _______ _____ _____    ______ ____
ROOT
ATOM      1  C   UNL     1      52.009 154.048  27.375  0.00  0.00    +0.143 C 
ATOM      2  C   UNL     1      53.326 153.925  27.016  0.00  0.00    +0.077 C 
ATOM      3  C   UNL     1      53.803 152.764  26.392  0.00  0.00    +0.176 C 
ATOM      4  C   UNL     1      52.906 151.742  26.148  0.00  0.00    +0.079 C 
ATOM      5  C   UNL     1      51.581 151.838  26.498  0.00  0.00    +0.010 C 
ATOM      6  C   UNL     1      51.126 152.987  27.111  0.00  0.00    +0.037 C 
ENDROOT
BRANCH   4   7
ATOM      7  C   UNL     1      53.403 150.527  25.496  0.00  0.00    +0.237 C 
ATOM      8  O   UNL     1      54.579 150.433  25.116  0.00  0.00    -0.283 OA
ENDBRANCH   4   7
BRANCH   1   9
ATOM      9  O   UNL     1      51.472 155.141  27.988  0.00  0.00    -0.461 OA
BRANCH   9  15
ATOM     10  N   UNL     1      51.452 155.671  30.289  0.00  0.00    -0.260 NA
ATOM     11  C   UNL     1      50.088 156.158  30.375  0.00  0.00    +0.104 C 
ATOM     12  C   UNL     1      49.821 157.288  29.408  0.00  0.00    +0.160 C 
ATOM     13  O   UNL     1      50.937 158.065  29.227  0.00  0.00    -0.347 OA
ATOM     14  C   UNL     1      51.987 157.381  28.611  0.00  0.00    +0.203 C 
ATOM     15  C   UNL     1      52.048 155.936  28.981  0.00  0.00    +0.255 C 
ATOM     16  H   UNL     1      51.453 154.664  30.453  0.00  0.00    +0.127 HD
ENDBRANCH   9  15
ENDBRANCH   1   9
BRANCH   3  17
ATOM     17  O   UNL     1      55.116 152.625  26.029  0.00  0.00    -0.384 OA
BRANCH  17  18
ATOM     18  N   UNL     1      55.600 152.979  24.796  0.00  0.00    -0.144 N 
ATOM     19  C   UNL     1      54.775 153.265  23.690  0.00  0.00    +0.277 C 
ATOM     20  O   UNL     1      53.518 153.192  23.856  0.00  0.00    -0.267 OA
ATOM     21  H   UNL     1      56.576 153.036  24.677  0.00  0.00    +0.196 HD
BRANCH  19  22
ATOM     22  C   UNL     1      55.305 153.643  22.365  0.00  0.00    +0.056 C 
ATOM     23  C   UNL     1      56.563 154.136  22.162  0.00  0.00    +0.005 C 
ATOM     24  C   UNL     1      57.031 154.477  20.899  0.00  0.00    +0.000 C 
ATOM     25  C   UNL     1      56.227 154.324  19.792  0.00  0.00    +0.000 C 
ATOM     26  C   UNL     1      54.954 153.825  19.985  0.00  0.00    +0.000 C 
ATOM     27  C   UNL     1      54.490 153.488  21.251  0.00  0.00    +0.005 C 
ENDBRANCH  19  22
ENDBRANCH  17  18
ENDBRANCH   3  17
TORSDOF 6
