REMARK  Name = =
REMARK  3 active torsions:
REMARK  status: ('A' for Active; 'I' for Inactive)
REMARK    1  A    between atoms: C_7  and  C_8
REMARK    2  A    between atoms: C_8  and  C_10
REMARK    3  A    between atoms: C_10  and  O_12
REMARK                            x       y       z     vdW  Elec       q    Type
REMARK                         _______ _______ _______ _____ _____    ______ ____
ROOT
ATOM      1  C   UNL     1      53.227 154.704  26.705  0.00  0.00    +0.121 C 
ATOM      2  N   UNL     1      53.424 153.479  26.194  0.00  0.00    -0.177 NA
ATOM      3  N   UNL     1      52.873 152.414  26.731  0.00  0.00    -0.202 N 
ATOM      4  C   UNL     1      52.104 152.597  27.815  0.00  0.00    +0.265 C 
ATOM      5  O   UNL     1      51.566 151.571  28.343  0.00  0.00    -0.268 OA
ATOM      6  C   UNL     1      51.864 153.832  28.389  0.00  0.00    +0.064 C 
ATOM      7  C   UNL     1      52.434 154.945  27.834  0.00  0.00    +0.071 C 
ATOM      8  H   UNL     1      53.019 151.517  26.353  0.00  0.00    +0.178 HD
ENDROOT
BRANCH   7   9
ATOM      9  C   UNL     1      52.281 156.298  28.312  0.00  0.00    +0.272 C 
ATOM     10  O   UNL     1      52.892 157.243  27.696  0.00  0.00    -0.280 OA
BRANCH   9  11
ATOM     11  C   UNL     1      51.493 156.710  29.439  0.00  0.00    +0.378 C 
ATOM     12  O   UNL     1      50.725 155.959  30.083  0.00  0.00    -0.241 OA
BRANCH  11  13
ATOM     13  O   UNL     1      51.522 158.039  29.924  0.00  0.00    -0.475 OA
ATOM     14  H   UNL     1      52.067 158.678  29.508  0.00  0.00    +0.296 HD
ENDBRANCH  11  13
ENDBRANCH   9  11
ENDBRANCH   7   9
TORSDOF 3
