REMARK  Name = =
REMARK  4 active torsions:
REMARK  status: ('A' for Active; 'I' for Inactive)
REMARK    1  A    between atoms: C_1  and  C_9
REMARK    2  A    between atoms: C_1  and  C_10
REMARK    3  A    between atoms: C_10  and  O_12
REMARK    4  A    between atoms: O_12  and  N_13
REMARK                            x       y       z     vdW  Elec       q    Type
REMARK                         _______ _______ _______ _____ _____    ______ ____
ROOT
ATOM      1  C   UNL     1      52.450 157.180  28.235  0.00  0.00    +0.276 C 
ATOM      2  O   UNL     1      53.227 158.034  27.662  0.00  0.00    -0.206 OA
ENDROOT
BRANCH   1   9
ATOM      3  C   UNL     1      52.812 155.538  26.438  0.00  0.00    +0.116 C 
ATOM      4  N   UNL     1      52.831 154.285  25.945  0.00  0.00    -0.178 NA
ATOM      5  N   UNL     1      52.535 153.239  26.697  0.00  0.00    -0.202 N 
ATOM      6  C   UNL     1      52.211 153.449  27.973  0.00  0.00    +0.264 C 
ATOM      7  O   UNL     1      51.918 152.485  28.744  0.00  0.00    -0.268 OA
ATOM      8  C   UNL     1      52.171 154.718  28.545  0.00  0.00    +0.060 C 
ATOM      9  C   UNL     1      52.474 155.805  27.779  0.00  0.00    +0.044 C 
ATOM     10  H   UNL     1      52.553 152.328  26.324  0.00  0.00    +0.178 HD
ENDBRANCH   1   9
BRANCH   1  11
ATOM     11  C   UNL     1      51.583 157.620  29.304  0.00  0.00    +0.374 C 
ATOM     12  O   UNL     1      51.168 156.924  30.257  0.00  0.00    -0.245 OA
BRANCH  11  13
ATOM     13  O   UNL     1      51.137 158.945  29.306  0.00  0.00    -0.334 OA
BRANCH  13  14
ATOM     14  N   UNL     1      50.396 159.435  30.369  0.00  0.00    -0.062 N 
ATOM     15  C   UNL     1      50.712 160.322  31.400  0.00  0.00    +0.264 C 
ATOM     16  O   UNL     1      51.734 161.093  31.378  0.00  0.00    -0.271 OA
ATOM     17  C   UNL     1      49.699 160.205  32.459  0.00  0.00    +0.098 C 
ATOM     18  C   UNL     1      48.474 159.653  31.738  0.00  0.00    +0.098 C 
ATOM     19  C   UNL     1      49.053 158.987  30.533  0.00  0.00    +0.264 C 
ATOM     20  O   UNL     1      48.384 158.185  29.843  0.00  0.00    -0.271 OA
ENDBRANCH  13  14
ENDBRANCH  11  13
ENDBRANCH   1  11
TORSDOF 4
