REMARK  Name = =
REMARK  7 active torsions:
REMARK  status: ('A' for Active; 'I' for Inactive)
REMARK    1  A    between atoms: C_1  and  C_20
REMARK    2  A    between atoms: C_7  and  C_8
REMARK    3  A    between atoms: C_8  and  C_10
REMARK    4  A    between atoms: C_10  and  O_12
REMARK    5  A    between atoms: O_12  and  N_13
REMARK    6  A    between atoms: C_20  and  O_21
REMARK    7  A    between atoms: O_21  and  C_23
REMARK                            x       y       z     vdW  Elec       q    Type
REMARK                         _______ _______ _______ _____ _____    ______ ____
ROOT
ATOM      1  C   UNL     1      52.791 155.758  27.606  0.00  0.00    +0.119 C 
ATOM      2  N   UNL     1      52.930 154.484  27.238  0.00  0.00    -0.180 NA
ATOM      3  N   UNL     1      52.463 153.482  27.926  0.00  0.00    -0.203 N 
ATOM      4  C   UNL     1      51.806 153.702  29.060  0.00  0.00    +0.264 C 
ATOM      5  O   UNL     1      51.353 152.743  29.728  0.00  0.00    -0.268 OA
ATOM      6  C   UNL     1      51.597 154.989  29.547  0.00  0.00    +0.059 C 
ATOM      7  C   UNL     1      52.107 156.024  28.792  0.00  0.00    +0.042 C 
ATOM      8  H   UNL     1      52.597 152.561  27.606  0.00  0.00    +0.178 HD
ENDROOT
BRANCH   7   9
ATOM      9  C   UNL     1      51.936 157.382  29.233  0.00  0.00    +0.275 C 
ATOM     10  O   UNL     1      52.746 158.306  28.828  0.00  0.00    -0.206 OA
BRANCH   9  11
ATOM     11  C   UNL     1      50.912 157.878  30.121  0.00  0.00    +0.374 C 
ATOM     12  O   UNL     1      50.041 157.159  30.652  0.00  0.00    -0.245 OA
BRANCH  11  13
ATOM     13  O   UNL     1      50.817 159.238  30.463  0.00  0.00    -0.334 OA
BRANCH  13  14
ATOM     14  N   UNL     1      49.751 159.717  31.190  0.00  0.00    -0.062 N 
ATOM     15  C   UNL     1      49.702 160.285  32.488  0.00  0.00    +0.264 C 
ATOM     16  O   UNL     1      50.749 160.618  33.139  0.00  0.00    -0.271 OA
ATOM     17  C   UNL     1      48.311 160.436  32.982  0.00  0.00    +0.098 C 
ATOM     18  C   UNL     1      47.474 160.023  31.809  0.00  0.00    +0.098 C 
ATOM     19  C   UNL     1      48.426 159.718  30.705  0.00  0.00    +0.264 C 
ATOM     20  O   UNL     1      48.078 159.496  29.524  0.00  0.00    -0.271 OA
ENDBRANCH  13  14
ENDBRANCH  11  13
ENDBRANCH   9  11
ENDBRANCH   7   9
BRANCH   1  21
ATOM     21  C   UNL     1      53.381 156.828  26.792  0.00  0.00    +0.252 C 
BRANCH  21  22
ATOM     22  O   UNL     1      54.468 156.328  26.049  0.00  0.00    -0.469 OA
BRANCH  22  24
ATOM     23  C   UNL     1      53.084 154.808  24.854  0.00  0.00    +0.037 C 
ATOM     24  C   UNL     1      54.333 155.263  25.193  0.00  0.00    +0.139 C 
ATOM     25  C   UNL     1      55.406 154.601  24.638  0.00  0.00    +0.037 C 
ATOM     26  C   UNL     1      55.231 153.525  23.778  0.00  0.00    +0.003 C 
ATOM     27  C   UNL     1      53.960 153.085  23.452  0.00  0.00    +0.000 C 
ATOM     28  C   UNL     1      52.879 153.731  23.994  0.00  0.00    +0.003 C 
ENDBRANCH  22  24
ENDBRANCH  21  22
ENDBRANCH   1  21
TORSDOF 7
