MODEL 1
REMARK VINA RESULT:    -7.719      0.000      0.000
REMARK INTER + INTRA:         -14.344
REMARK INTER:                 -11.780
REMARK INTRA:                  -2.565
REMARK UNBOUND:                -2.565
REMARK  Name = =
REMARK  10 active torsions:
REMARK  status: ('A' for Active; 'I' for Inactive)
REMARK    1  A    between atoms: C_1  and  N_11
REMARK    2  A    between atoms: C_4  and  O_30
REMARK    3  A    between atoms: C_6  and  O_23
REMARK    4  A    between atoms: N_11  and  N_12
REMARK    5  A    between atoms: N_11  and  P_19
REMARK    6  A    between atoms: N_12  and  N_15
REMARK    7  A    between atoms: P_19  and  N_21
REMARK    8  A    between atoms: P_19  and  O_22
REMARK    9  A    between atoms: O_23  and  N_24
REMARK   10  A    between atoms: O_30  and  C_31
REMARK                            x       y       z     vdW  Elec       q    Type
REMARK                         _______ _______ _______ _____ _____    ______ ____
ROOT
ATOM      1  C   UNL     1      59.284 163.381  39.283  0.00  0.00    +0.146 C 
ATOM      2  C   UNL     1      58.674 164.476  39.833  0.00  0.00    +0.156 C 
ATOM      3  C   UNL     1      57.718 164.379  40.824  0.00  0.00    +0.048 C 
ATOM      4  C   UNL     1      57.350 163.164  41.291  0.00  0.00    +0.147 C 
ATOM      5  C   UNL     1      57.946 162.022  40.762  0.00  0.00    +0.078 C 
ATOM      6  C   UNL     1      58.899 162.125  39.771  0.00  0.00    +0.186 C 
ATOM      7  C   UNL     1      57.150 165.673  41.292  0.00  0.00    +0.036 C 
ATOM      8  C   UNL     1      58.310 166.576  41.605  0.00  0.00    +0.052 C 
ATOM      9  C   UNL     1      58.982 166.889  40.260  0.00  0.00    +0.206 C 
ATOM     10  O   UNL     1      58.993 165.780  39.407  0.00  0.00    -0.474 OA
ENDROOT
BRANCH   1  11
ATOM     11  N   UNL     1      60.247 163.494  38.241  0.00  0.00    -0.137 N 
BRANCH  11  12
ATOM     12  N   UNL     1      59.793 163.934  37.000  0.00  0.00    -0.114 N 
ATOM     13  C   UNL     1      59.197 163.039  36.104  0.00  0.00    +0.338 C 
ATOM     14  O   UNL     1      59.067 161.833  36.426  0.00  0.00    -0.262 OA
BRANCH  12  15
ATOM     15  N   UNL     1      59.934 165.281  36.624  0.00  0.00    -0.198 N 
ATOM     16  C   UNL     1      60.678 165.685  35.487  0.00  0.00    +0.315 C 
ATOM     17  O   UNL     1      61.232 164.804  34.789  0.00  0.00    -0.251 OA
ATOM     18  N   UNL     1      60.796 167.049  35.142  0.00  0.00    -0.312 N 
ATOM     19  H   UNL     1      59.498 165.972  37.173  0.00  0.00    +0.176 HD
ATOM     20  H   UNL     1      60.359 167.736  35.695  0.00  0.00    +0.147 HD
ATOM     21  H   UNL     1      61.316 167.312  34.349  0.00  0.00    +0.147 HD
ENDBRANCH  12  15
ENDBRANCH  11  12
BRANCH  11  22
ATOM     22  P   UNL     1      61.928 163.115  38.448  0.00  0.00    +0.376 P 
ATOM     23  O   UNL     1      62.290 163.352  39.895  0.00  0.00    -0.249 OA
BRANCH  22  24
ATOM     24  N   UNL     1      62.271 161.444  38.050  0.00  0.00    -0.243 NA
ATOM     25  H   UNL     1      61.622 160.835  38.550  0.00  0.00    +0.129 HD
ATOM     26  H   UNL     1      63.227 161.218  38.323  0.00  0.00    +0.129 HD
ENDBRANCH  22  24
BRANCH  22  27
ATOM     27  O   UNL     1      62.806 164.126  37.408  0.00  0.00    -0.318 OA
ATOM     28  H   UNL     1      63.755 163.960  37.521  0.00  0.00    +0.220 HD
ENDBRANCH  22  27
ENDBRANCH  11  22
ENDBRANCH   1  11
BRANCH   6  29
ATOM     29  O   UNL     1      59.550 161.058  39.176  0.00  0.00    -0.400 OA
BRANCH  29  30
ATOM     30  N   UNL     1      60.098 159.985  39.766  0.00  0.00    -0.121 NA
ATOM     31  C   UNL     1      59.309 158.821  39.760  0.00  0.00    +0.113 C 
ATOM     32  C   UNL     1      58.573 158.462  41.010  0.00  0.00    +0.021 C 
ATOM     33  C   UNL     1      59.288 158.795  42.266  0.00  0.00    +0.003 C 
ATOM     34  C   UNL     1      60.726 159.179  42.014  0.00  0.00    +0.021 C 
ATOM     35  C   UNL     1      60.830 160.247  40.951  0.00  0.00    +0.113 C 
ENDBRANCH  29  30
ENDBRANCH   6  29
BRANCH   4  36
ATOM     36  O   UNL     1      56.429 162.988  42.253  0.00  0.00    -0.454 OA
BRANCH  36  37
ATOM     37  C   UNL     1      55.274 162.274  42.306  0.00  0.00    +0.147 C 
ATOM     38  C   UNL     1      54.103 162.960  41.969  0.00  0.00    +0.057 C 
ATOM     39  C   UNL     1      52.866 162.373  41.977  0.00  0.00    +0.084 C 
ATOM     40  N   UNL     1      51.749 163.090  41.634  0.00  0.00    -0.244 NA
ATOM     41  C   UNL     1      50.536 162.532  41.629  0.00  0.00    +0.099 C 
ATOM     42  C   UNL     1      50.387 161.198  41.978  0.00  0.00    +0.099 C 
ATOM     43  N   UNL     1      49.156 160.679  41.958  0.00  0.00    -0.242 NA
ATOM     44  C   UNL     1      48.040 161.368  41.619  0.00  0.00    +0.099 C 
ATOM     45  C   UNL     1      48.140 162.701  41.263  0.00  0.00    +0.022 C 
ATOM     46  C   UNL     1      49.396 163.257  41.277  0.00  0.00    +0.022 C 
ATOM     47  C   UNL     1      51.509 160.458  42.329  0.00  0.00    +0.022 C 
ATOM     48  C   UNL     1      52.736 161.040  42.327  0.00  0.00    +0.019 C 
ATOM     49  C   UNL     1      53.897 160.371  42.658  0.00  0.00    +0.005 C 
ATOM     50  C   UNL     1      55.132 160.965  42.649  0.00  0.00    +0.038 C 
ENDBRANCH  36  37
ENDBRANCH   4  36
TORSDOF 10
ENDMDL
