REMARK  Name = =
REMARK  10 active torsions:
REMARK  status: ('A' for Active; 'I' for Inactive)
REMARK    1  A    between atoms: C_1  and  N_11
REMARK    2  A    between atoms: C_4  and  O_30
REMARK    3  A    between atoms: C_6  and  O_23
REMARK    4  A    between atoms: N_11  and  N_12
REMARK    5  A    between atoms: N_11  and  P_19
REMARK    6  A    between atoms: N_12  and  N_15
REMARK    7  A    between atoms: P_19  and  N_21
REMARK    8  A    between atoms: P_19  and  O_22
REMARK    9  A    between atoms: O_23  and  N_24
REMARK   10  A    between atoms: O_30  and  C_31
REMARK                            x       y       z     vdW  Elec       q    Type
REMARK                         _______ _______ _______ _____ _____    ______ ____
ROOT
ATOM      1  C   UNL     1      52.108 160.435  30.412  0.00  0.00    +0.146 C 
ATOM      2  C   UNL     1      53.423 160.106  30.224  0.00  0.00    +0.156 C 
ATOM      3  C   UNL     1      53.822 159.035  29.451  0.00  0.00    +0.048 C 
ATOM      4  C   UNL     1      52.896 158.260  28.840  0.00  0.00    +0.147 C 
ATOM      5  C   UNL     1      51.546 158.558  29.002  0.00  0.00    +0.078 C 
ATOM      6  C   UNL     1      51.153 159.629  29.777  0.00  0.00    +0.186 C 
ATOM      7  C   UNL     1      55.293 158.817  29.372  0.00  0.00    +0.036 C 
ATOM      8  C   UNL     1      55.915 160.136  29.010  0.00  0.00    +0.052 C 
ATOM      9  C   UNL     1      55.704 161.054  30.224  0.00  0.00    +0.206 C 
ATOM     10  O   UNL     1      54.455 160.855  30.822  0.00  0.00    -0.474 OA
ENDROOT
BRANCH   1  11
ATOM     11  N   UNL     1      51.709 161.525  31.236  0.00  0.00    -0.137 N 
BRANCH  11  12
ATOM     12  N   UNL     1      50.441 161.459  31.808  0.00  0.00    -0.114 N 
ATOM     13  C   UNL     1      50.208 160.647  32.924  0.00  0.00    +0.338 C 
ATOM     14  O   UNL     1      51.151 159.979  33.414  0.00  0.00    -0.262 OA
BRANCH  12  15
ATOM     15  N   UNL     1      49.374 162.198  31.270  0.00  0.00    -0.198 N 
ATOM     16  C   UNL     1      48.337 162.740  32.069  0.00  0.00    +0.315 C 
ATOM     17  O   UNL     1      48.375 162.552  33.308  0.00  0.00    -0.251 OA
ATOM     18  N   UNL     1      47.281 163.477  31.491  0.00  0.00    -0.312 N 
ATOM     19  H   UNL     1      49.346 162.345  30.297  0.00  0.00    +0.176 HD
ATOM     20  H   UNL     1      47.257 163.621  30.517  0.00  0.00    +0.147 HD
ATOM     21  H   UNL     1      46.569 163.847  32.061  0.00  0.00    +0.147 HD
ENDBRANCH  12  15
ENDBRANCH  11  12
BRANCH  11  22
ATOM     22  P   UNL     1      52.716 162.902  31.553  0.00  0.00    +0.376 P 
ATOM     23  O   UNL     1      51.886 163.936  32.277  0.00  0.00    -0.249 OA
BRANCH  22  24
ATOM     24  N   UNL     1      54.091 162.484  32.555  0.00  0.00    -0.243 NA
ATOM     25  H   UNL     1      53.762 162.137  33.456  0.00  0.00    +0.129 HD
ATOM     26  H   UNL     1      54.670 163.311  32.700  0.00  0.00    +0.129 HD
ENDBRANCH  22  24
BRANCH  22  27
ATOM     27  O   UNL     1      53.271 163.478  30.058  0.00  0.00    -0.318 OA
ATOM     28  H   UNL     1      52.513 163.711  29.500  0.00  0.00    +0.220 HD
ENDBRANCH  22  27
ENDBRANCH  11  22
ENDBRANCH   1  11
BRANCH   6  29
ATOM     29  O   UNL     1      49.842 160.010  30.005  0.00  0.00    -0.400 OA
BRANCH  29  30
ATOM     30  N   UNL     1      48.786 159.231  30.280  0.00  0.00    -0.121 NA
ATOM     31  C   UNL     1      47.589 159.580  29.629  0.00  0.00    +0.113 C 
ATOM     32  C   UNL     1      46.557 160.331  30.406  0.00  0.00    +0.021 C 
ATOM     33  C   UNL     1      46.470 159.959  31.839  0.00  0.00    +0.003 C 
ATOM     34  C   UNL     1      47.258 158.709  32.149  0.00  0.00    +0.021 C 
ATOM     35  C   UNL     1      48.672 158.809  31.629  0.00  0.00    +0.113 C 
ENDBRANCH  29  30
ENDBRANCH   6  29
BRANCH   4  36
ATOM     36  O   UNL     1      53.205 157.202  28.072  0.00  0.00    -0.454 OA
BRANCH  36  37
ATOM     37  C   UNL     1      52.770 155.915  28.055  0.00  0.00    +0.147 C 
ATOM     38  C   UNL     1      53.355 155.073  27.104  0.00  0.00    +0.057 C 
ATOM     39  C   UNL     1      53.018 153.753  26.968  0.00  0.00    +0.084 C 
ATOM     40  N   UNL     1      53.626 152.970  26.021  0.00  0.00    -0.244 NA
ATOM     41  C   UNL     1      53.315 151.679  25.879  0.00  0.00    +0.099 C 
ATOM     42  C   UNL     1      52.356 151.104  26.701  0.00  0.00    +0.099 C 
ATOM     43  N   UNL     1      52.077 149.809  26.526  0.00  0.00    -0.242 NA
ATOM     44  C   UNL     1      52.667 149.017  25.600  0.00  0.00    +0.099 C 
ATOM     45  C   UNL     1      53.629 149.546  24.759  0.00  0.00    +0.022 C 
ATOM     46  C   UNL     1      53.933 150.876  24.919  0.00  0.00    +0.022 C 
ATOM     47  C   UNL     1      51.731 151.885  27.665  0.00  0.00    +0.022 C 
ATOM     48  C   UNL     1      52.060 153.196  27.797  0.00  0.00    +0.019 C 
ATOM     49  C   UNL     1      51.488 154.034  28.733  0.00  0.00    +0.005 C 
ATOM     50  C   UNL     1      51.829 155.355  28.863  0.00  0.00    +0.038 C 
ENDBRANCH  36  37
ENDBRANCH   4  36
TORSDOF 10
