MODEL 1
REMARK VINA RESULT:    -8.968      0.000      0.000
REMARK INTER + INTRA:         -15.088
REMARK INTER:                 -12.114
REMARK INTRA:                  -2.974
REMARK UNBOUND:                -2.974
REMARK  Name = =
REMARK  7 active torsions:
REMARK  status: ('A' for Active; 'I' for Inactive)
REMARK    1  A    between atoms: C_1  and  S_26
REMARK    2  A    between atoms: C_5  and  N_11
REMARK    3  A    between atoms: C_9  and  N_20
REMARK    4  A    between atoms: S_26  and  C_27
REMARK    5  A    between atoms: S_26  and  C_40
REMARK    6  A    between atoms: C_28  and  O_39
REMARK    7  A    between atoms: C_40  and  O_42
REMARK                            x       y       z     vdW  Elec       q    Type
REMARK                         _______ _______ _______ _____ _____    ______ ____
ROOT
ATOM      1  C   UNL     1       3.902  -6.115  27.556  0.00  0.00    +0.269 C 
ATOM      2  N   UNL     1       2.782  -5.668  28.246  0.00  0.00    -0.272 N 
ATOM      3  C   UNL     1       2.413  -4.414  28.811  0.00  0.00    +0.092 C 
ATOM      4  C   UNL     1       1.784  -4.819  30.164  0.00  0.00    +0.039 C 
ATOM      5  C   UNL     1       1.367  -6.234  29.996  0.00  0.00    +0.078 C 
ATOM      6  C   UNL     1       1.637  -6.536  28.547  0.00  0.00    +0.091 C 
ATOM      7  C   UNL     1       0.456  -6.175  27.677  0.00  0.00    +0.023 C 
ATOM      8  C   UNL     1       0.175  -4.721  27.634  0.00  0.00    +0.019 C 
ATOM      9  C   UNL     1       1.252  -3.779  28.030  0.00  0.00    +0.076 C 
ATOM     10  O   UNL     1       3.880  -7.330  27.034  0.00  0.00    -0.264 OA
ENDROOT
BRANCH   5  11
ATOM     11  N   UNL     1      -0.008  -6.529  30.245  0.00  0.00    -0.265 NA
ATOM     12  C   UNL     1      -0.052  -7.539  31.320  0.00  0.00    +0.099 C 
ATOM     13  C   UNL     1      -1.476  -7.441  31.754  0.00  0.00    -0.009 C 
ATOM     14  C   UNL     1      -1.936  -6.186  31.431  0.00  0.00    -0.009 C 
ATOM     15  C   UNL     1      -3.231  -5.891  31.763  0.00  0.00    -0.003 C 
ATOM     16  C   UNL     1      -4.045  -6.824  32.397  0.00  0.00    -0.000 C 
ATOM     17  C   UNL     1      -3.569  -8.079  32.715  0.00  0.00    -0.000 C 
ATOM     18  C   UNL     1      -2.265  -8.373  32.381  0.00  0.00    -0.003 C 
ATOM     19  C   UNL     1      -0.801  -5.461  30.753  0.00  0.00    +0.099 C 
ENDBRANCH   5  11
BRANCH   9  20
ATOM     20  N   UNL     1       1.671  -2.867  27.074  0.00  0.00    -0.268 NA
ATOM     21  C   UNL     1       2.265  -1.646  27.419  0.00  0.00    +0.077 C 
ATOM     22  C   UNL     1       2.537  -0.673  26.333  0.00  0.00    +0.043 C 
ATOM     23  C   UNL     1       1.722  -0.935  25.131  0.00  0.00    -0.028 C 
ATOM     24  C   UNL     1       1.381  -2.159  24.796  0.00  0.00    -0.013 C 
ATOM     25  C   UNL     1       1.884  -3.246  25.729  0.00  0.00    +0.099 C 
ENDBRANCH   9  20
BRANCH   1  26
ATOM     26  S   UNL     1       5.382  -5.309  27.276  0.00  0.00    -0.045 S 
ATOM     27  H   UNL     1       5.644  -4.622  28.420  0.00  0.00    +0.107 HD
BRANCH  26  28
ATOM     28  C   UNL     1       5.243  -4.266  25.904  0.00  0.00    +0.098 C 
ATOM     29  C   UNL     1       5.597  -2.994  26.065  0.00  0.00    +0.181 C 
ATOM     30  C   UNL     1       5.522  -2.020  24.996  0.00  0.00    +0.230 C 
ATOM     31  O   UNL     1       5.858  -0.804  25.139  0.00  0.00    -0.283 OA
ATOM     32  C   UNL     1       5.041  -2.418  23.676  0.00  0.00    +0.045 C 
ATOM     33  C   UNL     1       4.672  -3.719  23.476  0.00  0.00    +0.043 C 
ATOM     34  C   UNL     1       4.205  -4.133  22.228  0.00  0.00    +0.003 C 
ATOM     35  C   UNL     1       4.117  -3.220  21.190  0.00  0.00    +0.000 C 
ATOM     36  C   UNL     1       4.496  -1.911  21.413  0.00  0.00    +0.000 C 
ATOM     37  C   UNL     1       4.956  -1.491  22.639  0.00  0.00    +0.003 C 
ATOM     38  C   UNL     1       4.766  -4.678  24.597  0.00  0.00    +0.204 C 
ATOM     39  O   UNL     1       4.426  -5.861  24.405  0.00  0.00    -0.286 OA
BRANCH  29  40
ATOM     40  O   UNL     1       6.064  -2.559  27.302  0.00  0.00    -0.502 OA
ATOM     41  H   UNL     1       5.686  -2.895  28.090  0.00  0.00    +0.292 HD
ENDBRANCH  29  40
ENDBRANCH  26  28
BRANCH  26  42
ATOM     42  C   UNL     1       6.667  -6.363  26.955  0.00  0.00    +0.358 C 
ATOM     43  O   UNL     1       7.739  -6.326  27.615  0.00  0.00    -0.239 OA
BRANCH  42  44
ATOM     44  O   UNL     1       6.587  -7.320  25.945  0.00  0.00    -0.473 OA
ATOM     45  H   UNL     1       5.755  -7.677  25.703  0.00  0.00    +0.296 HD
ENDBRANCH  42  44
ENDBRANCH  26  42
ENDBRANCH   1  26
TORSDOF 7
ENDMDL
