MODEL 1
REMARK VINA RESULT:    -9.812      0.000      0.000
REMARK INTER + INTRA:         -15.385
REMARK INTER:                 -13.540
REMARK INTRA:                  -1.845
REMARK UNBOUND:                -1.845
REMARK  Name = =
REMARK  7 active torsions:
REMARK  status: ('A' for Active; 'I' for Inactive)
REMARK    1  A    between atoms: C_1  and  N_10
REMARK    2  A    between atoms: C_2  and  C_27
REMARK    3  A    between atoms: C_8  and  C_21
REMARK    4  A    between atoms: C_8  and  O_32
REMARK    5  A    between atoms: C_27  and  C_29
REMARK    6  A    between atoms: C_29  and  O_31
REMARK    7  A    between atoms: O_32  and  C_33
REMARK                            x       y       z     vdW  Elec       q    Type
REMARK                         _______ _______ _______ _____ _____    ______ ____
ROOT
ATOM      1  C   UNL     1      -1.237  -7.250  29.969  0.00  0.00    +0.065 C 
ATOM      2  C   UNL     1      -0.037  -6.584  29.834  0.00  0.00    +0.097 C 
ATOM      3  C   UNL     1       0.672  -6.515  28.633  0.00  0.00    +0.184 C 
ATOM      4  C   UNL     1       0.149  -7.136  27.545  0.00  0.00    +0.180 C 
ATOM      5  C   UNL     1      -1.049  -7.815  27.636  0.00  0.00    +0.042 C 
ATOM      6  C   UNL     1      -1.741  -7.871  28.846  0.00  0.00    +0.019 C 
ATOM      7  O   UNL     1       1.043  -6.911  26.510  0.00  0.00    -0.415 OA
ATOM      8  C   UNL     1       2.141  -6.168  26.916  0.00  0.00    +0.429 C 
ATOM      9  O   UNL     1       1.874  -5.904  28.305  0.00  0.00    -0.415 OA
ENDROOT
BRANCH   1  10
ATOM     10  N   UNL     1      -1.930  -7.296  31.226  0.00  0.00    -0.234 N 
ATOM     11  C   UNL     1      -2.754  -6.320  31.626  0.00  0.00    +0.058 C 
ATOM     12  C   UNL     1      -3.430  -6.362  32.852  0.00  0.00    +0.014 C 
ATOM     13  C   UNL     1      -4.270  -5.349  33.240  0.00  0.00    +0.001 C 
ATOM     14  C   UNL     1      -4.462  -4.268  32.423  0.00  0.00    +0.000 C 
ATOM     15  C   UNL     1      -3.790  -4.225  31.208  0.00  0.00    +0.001 C 
ATOM     16  C   UNL     1      -2.941  -5.237  30.802  0.00  0.00    +0.015 C 
ATOM     17  C   UNL     1      -3.253  -7.442  33.687  0.00  0.00    +0.006 C 
ATOM     18  C   UNL     1      -2.403  -8.449  33.272  0.00  0.00    +0.059 C 
ATOM     19  C   UNL     1      -1.769  -8.343  32.055  0.00  0.00    +0.257 C 
ATOM     20  O   UNL     1      -1.004  -9.279  31.713  0.00  0.00    -0.269 OA
ENDBRANCH   1  10
BRANCH   8  21
ATOM     21  C   UNL     1       3.420  -7.012  26.939  0.00  0.00    +0.122 C 
ATOM     22  C   UNL     1       4.555  -6.322  27.618  0.00  0.00    +0.012 C 
ATOM     23  C   UNL     1       5.806  -6.234  26.769  0.00  0.00    +0.000 C 
ATOM     24  C   UNL     1       5.425  -5.740  25.405  0.00  0.00    +0.000 C 
ATOM     25  C   UNL     1       4.554  -6.740  24.698  0.00  0.00    +0.000 C 
ATOM     26  C   UNL     1       3.740  -7.596  25.603  0.00  0.00    +0.012 C 
ENDBRANCH   8  21
BRANCH   2  27
ATOM     27  C   UNL     1       0.520  -5.925  30.981  0.00  0.00    +0.275 C 
ATOM     28  O   UNL     1       0.726  -6.566  32.033  0.00  0.00    -0.279 OA
BRANCH  27  29
ATOM     29  C   UNL     1       0.848  -4.511  30.911  0.00  0.00    +0.378 C 
ATOM     30  O   UNL     1       1.971  -4.043  31.192  0.00  0.00    -0.241 OA
BRANCH  29  31
ATOM     31  O   UNL     1      -0.126  -3.589  30.509  0.00  0.00    -0.475 OA
ATOM     32  H   UNL     1      -0.943  -3.893  30.164  0.00  0.00    +0.296 HD
ENDBRANCH  29  31
ENDBRANCH  27  29
ENDBRANCH   2  27
BRANCH   8  33
ATOM     33  O   UNL     1       2.323  -4.926  26.328  0.00  0.00    -0.418 OA
BRANCH  33  34
ATOM     34  C   UNL     1       2.308  -3.685  26.871  0.00  0.00    +0.146 C 
ATOM     35  C   UNL     1       1.133  -3.020  27.145  0.00  0.00    +0.034 C 
ATOM     36  C   UNL     1       1.128  -1.742  27.702  0.00  0.00    +0.003 C 
ATOM     37  C   UNL     1       2.324  -1.123  27.987  0.00  0.00    +0.000 C 
ATOM     38  C   UNL     1       3.495  -1.765  27.724  0.00  0.00    +0.003 C 
ATOM     39  C   UNL     1       3.488  -3.041  27.168  0.00  0.00    +0.037 C 
ATOM     40  C   UNL     1      -0.020  -1.047  27.992  0.00  0.00    +0.000 C 
ATOM     41  C   UNL     1      -1.215  -1.674  27.707  0.00  0.00    +0.000 C 
ATOM     42  C   UNL     1      -1.233  -2.937  27.158  0.00  0.00    +0.000 C 
ATOM     43  C   UNL     1      -0.067  -3.605  26.879  0.00  0.00    +0.003 C 
ENDBRANCH  33  34
ENDBRANCH   8  33
TORSDOF 7
ENDMDL
