REMARK  Name = =
REMARK  7 active torsions:
REMARK  status: ('A' for Active; 'I' for Inactive)
REMARK    1  A    between atoms: C_1  and  N_10
REMARK    2  A    between atoms: C_2  and  C_27
REMARK    3  A    between atoms: C_8  and  C_21
REMARK    4  A    between atoms: C_8  and  O_32
REMARK    5  A    between atoms: C_27  and  C_29
REMARK    6  A    between atoms: C_29  and  O_31
REMARK    7  A    between atoms: O_32  and  C_33
REMARK                            x       y       z     vdW  Elec       q    Type
REMARK                         _______ _______ _______ _____ _____    ______ ____
ROOT
ATOM      1  C   UNL     1       1.993  -8.627  25.849  0.00  0.00    +0.065 C 
ATOM      2  C   UNL     1       3.242  -9.160  26.088  0.00  0.00    +0.097 C 
ATOM      3  C   UNL     1       3.845 -10.106  25.257  0.00  0.00    +0.184 C 
ATOM      4  C   UNL     1       3.163 -10.520  24.159  0.00  0.00    +0.180 C 
ATOM      5  C   UNL     1       1.910 -10.013  23.882  0.00  0.00    +0.042 C 
ATOM      6  C   UNL     1       1.326  -9.068  24.725  0.00  0.00    +0.019 C 
ATOM      7  O   UNL     1       3.981 -11.444  23.527  0.00  0.00    -0.415 OA
ATOM      8  C   UNL     1       5.172 -11.644  24.208  0.00  0.00    +0.429 C 
ATOM      9  O   UNL     1       5.073 -10.749  25.330  0.00  0.00    -0.415 OA
ENDROOT
BRANCH   1  10
ATOM     10  N   UNL     1       1.411  -7.656  26.733  0.00  0.00    -0.234 N 
ATOM     11  C   UNL     1       1.589  -6.340  26.568  0.00  0.00    +0.058 C 
ATOM     12  C   UNL     1       1.023  -5.391  27.430  0.00  0.00    +0.014 C 
ATOM     13  C   UNL     1       1.219  -4.047  27.240  0.00  0.00    +0.001 C 
ATOM     14  C   UNL     1       1.981  -3.607  26.191  0.00  0.00    +0.000 C 
ATOM     15  C   UNL     1       2.543  -4.548  25.337  0.00  0.00    +0.001 C 
ATOM     16  C   UNL     1       2.355  -5.905  25.514  0.00  0.00    +0.015 C 
ATOM     17  C   UNL     1       0.252  -5.812  28.489  0.00  0.00    +0.006 C 
ATOM     18  C   UNL     1       0.069  -7.171  28.657  0.00  0.00    +0.059 C 
ATOM     19  C   UNL     1       0.655  -8.049  27.773  0.00  0.00    +0.257 C 
ATOM     20  O   UNL     1       0.465  -9.277  27.960  0.00  0.00    -0.269 OA
ENDBRANCH   1  10
BRANCH   8  21
ATOM     21  C   UNL     1       5.232 -13.035  24.849  0.00  0.00    +0.122 C 
ATOM     22  C   UNL     1       4.604 -14.089  24.001  0.00  0.00    +0.012 C 
ATOM     23  C   UNL     1       3.536 -14.888  24.718  0.00  0.00    +0.000 C 
ATOM     24  C   UNL     1       2.612 -13.933  25.415  0.00  0.00    +0.000 C 
ATOM     25  C   UNL     1       3.332 -13.193  26.507  0.00  0.00    +0.000 C 
ATOM     26  C   UNL     1       4.792 -13.023  26.276  0.00  0.00    +0.012 C 
ENDBRANCH   8  21
BRANCH   2  27
ATOM     27  C   UNL     1       3.967  -8.726  27.248  0.00  0.00    +0.275 C 
ATOM     28  O   UNL     1       3.787  -9.291  28.347  0.00  0.00    -0.279 OA
BRANCH  27  29
ATOM     29  C   UNL     1       4.915  -7.629  27.137  0.00  0.00    +0.378 C 
ATOM     30  O   UNL     1       5.868  -7.613  26.331  0.00  0.00    -0.241 OA
BRANCH  29  31
ATOM     31  O   UNL     1       4.782  -6.508  27.965  0.00  0.00    -0.475 OA
ATOM     32  H   UNL     1       4.084  -6.467  28.589  0.00  0.00    +0.296 HD
ENDBRANCH  29  31
ENDBRANCH  27  29
ENDBRANCH   2  27
BRANCH   8  33
ATOM     33  O   UNL     1       6.345 -11.298  23.557  0.00  0.00    -0.418 OA
BRANCH  33  34
ATOM     34  C   UNL     1       6.543 -10.707  22.354  0.00  0.00    +0.146 C 
ATOM     35  C   UNL     1       6.853 -11.431  21.224  0.00  0.00    +0.034 C 
ATOM     36  C   UNL     1       7.056 -10.813  19.991  0.00  0.00    +0.003 C 
ATOM     37  C   UNL     1       6.946  -9.445  19.894  0.00  0.00    +0.000 C 
ATOM     38  C   UNL     1       6.639  -8.712  20.999  0.00  0.00    +0.003 C 
ATOM     39  C   UNL     1       6.438  -9.340  22.225  0.00  0.00    +0.037 C 
ATOM     40  C   UNL     1       7.364 -11.499  18.842  0.00  0.00    +0.000 C 
ATOM     41  C   UNL     1       7.470 -12.870  18.946  0.00  0.00    +0.000 C 
ATOM     42  C   UNL     1       7.272 -13.501  20.154  0.00  0.00    +0.000 C 
ATOM     43  C   UNL     1       6.966 -12.787  21.285  0.00  0.00    +0.003 C 
ENDBRANCH  33  34
ENDBRANCH   8  33
TORSDOF 7
