MODEL 1
REMARK VINA RESULT:   -14.553      0.000      0.000
REMARK INTER + INTRA:         -20.595
REMARK INTER:                 -20.083
REMARK INTRA:                  -0.512
REMARK UNBOUND:                -0.512
REMARK  Name = =
REMARK  8 active torsions:
REMARK  status: ('A' for Active; 'I' for Inactive)
REMARK    1  A    between atoms: C_1  and  O_21
REMARK    2  A    between atoms: C_2  and  O_32
REMARK    3  A    between atoms: C_4  and  C_7
REMARK    4  A    between atoms: C_8  and  O_20
REMARK    5  A    between atoms: C_12  and  O_19
REMARK    6  A    between atoms: C_14  and  O_18
REMARK    7  A    between atoms: O_21  and  C_23
REMARK    8  A    between atoms: O_32  and  C_33
REMARK                            x       y       z     vdW  Elec       q    Type
REMARK                         _______ _______ _______ _____ _____    ______ ____
ROOT
ATOM      1  C   UNL     1     -12.887 -45.059  29.670  0.00  0.00    +0.176 C 
ATOM      2  C   UNL     1     -14.085 -44.427  29.909  0.00  0.00    +0.181 C 
ATOM      3  C   UNL     1     -14.700 -43.757  28.862  0.00  0.00    +0.044 C 
ATOM      4  C   UNL     1     -14.194 -43.683  27.596  0.00  0.00    +0.041 C 
ATOM      5  C   UNL     1     -12.964 -44.330  27.345  0.00  0.00    +0.006 C 
ATOM      6  C   UNL     1     -12.353 -44.992  28.380  0.00  0.00    +0.040 C 
ENDROOT
BRANCH   4   7
ATOM      7  C   UNL     1     -14.807 -42.993  26.484  0.00  0.00    +0.182 A 
ATOM      8  C   UNL     1     -14.128 -42.454  25.438  0.00  0.00    +0.208 A 
ATOM      9  C   UNL     1     -14.834 -41.800  24.404  0.00  0.00    +0.238 A 
ATOM     10  O   UNL     1     -14.160 -41.331  23.481  0.00  0.00    -0.283 OA
ATOM     11  C   UNL     1     -16.204 -41.696  24.431  0.00  0.00    +0.110 A 
ATOM     12  C   UNL     1     -16.936 -41.071  23.451  0.00  0.00    +0.143 C 
ATOM     13  C   UNL     1     -18.343 -41.010  23.557  0.00  0.00    +0.073 C 
ATOM     14  C   UNL     1     -18.962 -41.572  24.635  0.00  0.00    +0.140 C 
ATOM     15  C   UNL     1     -18.208 -42.191  25.602  0.00  0.00    +0.074 C 
ATOM     16  C   UNL     1     -16.818 -42.275  25.536  0.00  0.00    +0.155 A 
ATOM     17  O   UNL     1     -16.135 -42.870  26.472  0.00  0.00    -0.450 OA
BRANCH  14  18
ATOM     18  O   UNL     1     -20.364 -41.521  24.760  0.00  0.00    -0.505 OA
ATOM     19  H   UNL     1     -20.829 -40.748  24.508  0.00  0.00    +0.292 HD
ENDBRANCH  14  18
BRANCH  12  20
ATOM     20  O   UNL     1     -16.363 -40.502  22.368  0.00  0.00    -0.505 OA
ATOM     21  H   UNL     1     -16.401 -39.573  22.252  0.00  0.00    +0.292 HD
ENDBRANCH  12  20
BRANCH   8  22
ATOM     22  O   UNL     1     -12.755 -42.530  25.361  0.00  0.00    -0.501 OA
ATOM     23  H   UNL     1     -12.240 -41.747  25.377  0.00  0.00    +0.292 HD
ENDBRANCH   8  22
ENDBRANCH   4   7
BRANCH   1  24
ATOM     24  O   UNL     1     -12.298 -45.712  30.715  0.00  0.00    -0.449 OA
BRANCH  24  26
ATOM     25  O   UNL     1     -10.020 -45.838  30.303  0.00  0.00    -0.315 OA
ATOM     26  C   UNL     1     -11.024 -45.582  31.241  0.00  0.00    +0.292 C 
ATOM     27  C   UNL     1     -10.840 -44.157  31.762  0.00  0.00    +0.102 C 
ATOM     28  C   UNL     1      -9.450 -43.919  32.156  0.00  0.00    -0.018 C 
ATOM     29  C   UNL     1      -8.475 -44.825  31.800  0.00  0.00    +0.004 C 
ATOM     30  C   UNL     1      -7.155 -44.651  32.144  0.00  0.00    -0.002 C 
ATOM     31  C   UNL     1      -6.795 -43.523  32.873  0.00  0.00    -0.000 C 
ATOM     32  C   UNL     1      -7.742 -42.593  33.247  0.00  0.00    -0.000 C 
ATOM     33  C   UNL     1      -9.056 -42.796  32.888  0.00  0.00    -0.004 C 
ATOM     34  C   UNL     1      -8.832 -46.056  31.011  0.00  0.00    +0.172 C 
ENDBRANCH  24  26
ENDBRANCH   1  24
BRANCH   2  35
ATOM     35  O   UNL     1     -14.682 -44.441  31.147  0.00  0.00    -0.432 OA
BRANCH  35  36
ATOM     36  C   UNL     1     -14.354 -43.493  32.107  0.00  0.00    +0.244 C 
ATOM     37  N   UNL     1     -13.673 -42.416  31.725  0.00  0.00    -0.141 NA
ATOM     38  N   UNL     1     -13.342 -41.496  32.595  0.00  0.00    -0.200 N 
ATOM     39  C   UNL     1     -13.664 -41.585  33.889  0.00  0.00    +0.265 C 
ATOM     40  O   UNL     1     -13.335 -40.685  34.715  0.00  0.00    -0.268 OA
ATOM     41  C   UNL     1     -14.366 -42.680  34.323  0.00  0.00    +0.064 C 
ATOM     42  C   UNL     1     -14.717 -43.650  33.421  0.00  0.00    +0.064 C 
ATOM     43  H   UNL     1     -12.838 -40.708  32.285  0.00  0.00    +0.178 HD
ENDBRANCH  35  36
ENDBRANCH   2  35
TORSDOF 8
ENDMDL
