REMARK  Name = =
REMARK  5 active torsions:
REMARK  status: ('A' for Active; 'I' for Inactive)
REMARK    1  A    between atoms: C_1  and  C_15
REMARK    2  A    between atoms: C_10  and  C_23
REMARK    3  A    between atoms: C_15  and  C_20
REMARK    4  A    between atoms: C_23  and  C_25
REMARK    5  A    between atoms: C_26  and  O_31
REMARK                            x       y       z     vdW  Elec       q    Type
REMARK                         _______ _______ _______ _____ _____    ______ ____
ROOT
ATOM      1  C   UNL     1     -15.181 -42.392  26.333  0.00  0.00    +0.039 C 
ATOM      2  C   UNL     1     -14.954 -42.924  27.596  0.00  0.00    +0.020 C 
ATOM      3  C   UNL     1     -13.686 -43.284  28.025  0.00  0.00    +0.081 C 
ATOM      4  N   UNL     1     -13.455 -43.801  29.246  0.00  0.00    -0.244 NA
ATOM      5  C   UNL     1     -12.221 -44.147  29.658  0.00  0.00    +0.102 C 
ATOM      6  C   UNL     1     -11.110 -43.983  28.820  0.00  0.00    +0.099 C 
ATOM      7  N   UNL     1      -9.890 -44.335  29.248  0.00  0.00    -0.242 NA
ATOM      8  C   UNL     1      -9.722 -44.847  30.482  0.00  0.00    +0.099 C 
ATOM      9  C   UNL     1     -10.809 -45.019  31.328  0.00  0.00    +0.025 C 
ATOM     10  C   UNL     1     -12.077 -44.670  30.927  0.00  0.00    +0.060 C 
ATOM     11  C   UNL     1     -11.317 -43.454  27.558  0.00  0.00    +0.022 C 
ATOM     12  C   UNL     1     -12.605 -43.114  27.185  0.00  0.00    +0.019 C 
ATOM     13  C   UNL     1     -12.808 -42.587  25.929  0.00  0.00    +0.001 C 
ATOM     14  C   UNL     1     -14.104 -42.227  25.508  0.00  0.00    +0.001 C 
ENDROOT
BRANCH   1  15
ATOM     15  C   UNL     1     -16.566 -42.029  25.913  0.00  0.00    +0.278 C 
ATOM     16  O   UNL     1     -17.155 -43.084  25.213  0.00  0.00    -0.322 OA
ATOM     17  C   UNL     1     -18.168 -42.451  24.511  0.00  0.00    +0.177 C 
ATOM     18  C   UNL     1     -17.428 -41.212  24.005  0.00  0.00    +0.177 C 
ATOM     19  O   UNL     1     -16.569 -40.943  25.065  0.00  0.00    -0.322 OA
BRANCH  15  20
ATOM     20  C   UNL     1     -17.412 -41.768  27.083  0.00  0.00    +0.275 C 
ATOM     21  O   UNL     1     -16.990 -41.091  28.049  0.00  0.00    -0.270 OA
ATOM     22  N   UNL     1     -18.759 -42.265  27.191  0.00  0.00    -0.325 N 
ATOM     23  H   UNL     1     -19.145 -42.803  26.463  0.00  0.00    +0.145 HD
ATOM     24  H   UNL     1     -19.294 -42.067  27.993  0.00  0.00    +0.145 HD
ENDBRANCH  15  20
ENDBRANCH   1  15
BRANCH  10  25
ATOM     25  C   UNL     1     -13.284 -44.856  31.739  0.00  0.00    +0.200 C 
ATOM     26  O   UNL     1     -13.921 -45.939  31.652  0.00  0.00    -0.286 OA
BRANCH  25  27
ATOM     27  C   UNL     1     -13.697 -43.784  32.613  0.00  0.00    +0.073 C 
ATOM     28  C   UNL     1     -14.599 -43.952  33.629  0.00  0.00    +0.137 C 
ATOM     29  C   UNL     1     -15.026 -42.891  34.441  0.00  0.00    +0.037 C 
ATOM     30  C   UNL     1     -14.534 -41.642  34.222  0.00  0.00    +0.003 C 
ATOM     31  C   UNL     1     -13.633 -41.429  33.219  0.00  0.00    +0.000 C 
ATOM     32  C   UNL     1     -13.228 -42.474  32.437  0.00  0.00    +0.006 C 
BRANCH  28  33
ATOM     33  O   UNL     1     -15.146 -45.173  33.924  0.00  0.00    -0.505 OA
ATOM     34  H   UNL     1     -14.906 -45.927  33.422  0.00  0.00    +0.292 HD
ENDBRANCH  28  33
ENDBRANCH  25  27
ENDBRANCH  10  25
TORSDOF 5
