REMARK  Name = =
REMARK  7 active torsions:
REMARK  status: ('A' for Active; 'I' for Inactive)
REMARK    1  A    between atoms: C_1  and  C_15
REMARK    2  A    between atoms: C_10  and  C_23
REMARK    3  A    between atoms: C_15  and  C_20
REMARK    4  A    between atoms: C_23  and  C_25
REMARK    5  A    between atoms: C_26  and  O_31
REMARK    6  A    between atoms: O_31  and  O_32
REMARK    7  A    between atoms: O_32  and  C_33
REMARK                            x       y       z     vdW  Elec       q    Type
REMARK                         _______ _______ _______ _____ _____    ______ ____
ROOT
ATOM      1  C   UNL     1     -12.752 -43.093  29.289  0.00  0.00    +0.039 C 
ATOM      2  C   UNL     1     -14.069 -43.048  28.903  0.00  0.00    +0.020 C 
ATOM      3  C   UNL     1     -14.444 -42.600  27.627  0.00  0.00    +0.081 C 
ATOM      4  N   UNL     1     -15.744 -42.564  27.272  0.00  0.00    -0.244 NA
ATOM      5  C   UNL     1     -16.100 -42.133  26.051  0.00  0.00    +0.102 C 
ATOM      6  C   UNL     1     -15.176 -41.711  25.113  0.00  0.00    +0.099 C 
ATOM      7  N   UNL     1     -15.581 -41.295  23.918  0.00  0.00    -0.242 NA
ATOM      8  C   UNL     1     -16.903 -41.291  23.634  0.00  0.00    +0.099 C 
ATOM      9  C   UNL     1     -17.857 -41.703  24.541  0.00  0.00    +0.025 C 
ATOM     10  C   UNL     1     -17.474 -42.140  25.786  0.00  0.00    +0.060 C 
ATOM     11  C   UNL     1     -13.821 -41.732  25.442  0.00  0.00    +0.022 C 
ATOM     12  C   UNL     1     -13.505 -42.184  26.710  0.00  0.00    +0.019 C 
ATOM     13  C   UNL     1     -12.172 -42.229  27.099  0.00  0.00    +0.001 C 
ATOM     14  C   UNL     1     -11.809 -42.671  28.353  0.00  0.00    +0.001 C 
ENDROOT
BRANCH   1  15
ATOM     15  C   UNL     1     -12.340 -43.584  30.642  0.00  0.00    +0.278 C 
ATOM     16  O   UNL     1     -11.004 -43.339  30.912  0.00  0.00    -0.322 OA
ATOM     17  C   UNL     1     -10.866 -42.103  31.482  0.00  0.00    +0.177 C 
ATOM     18  C   UNL     1     -12.291 -41.583  31.472  0.00  0.00    +0.177 C 
ATOM     19  O   UNL     1     -12.985 -42.801  31.636  0.00  0.00    -0.322 OA
BRANCH  15  20
ATOM     20  C   UNL     1     -12.650 -45.012  30.856  0.00  0.00    +0.275 C 
ATOM     21  O   UNL     1     -13.758 -45.493  30.547  0.00  0.00    -0.270 OA
ATOM     22  N   UNL     1     -11.686 -45.886  31.425  0.00  0.00    -0.325 N 
ATOM     23  H   UNL     1     -10.800 -45.542  31.681  0.00  0.00    +0.145 HD
ATOM     24  H   UNL     1     -11.904 -46.836  31.563  0.00  0.00    +0.145 HD
ENDBRANCH  15  20
ENDBRANCH   1  15
BRANCH  10  25
ATOM     25  C   UNL     1     -18.409 -42.576  26.796  0.00  0.00    +0.200 C 
ATOM     26  O   UNL     1     -18.085 -42.534  28.019  0.00  0.00    -0.286 OA
BRANCH  25  27
ATOM     27  C   UNL     1     -19.718 -43.064  26.407  0.00  0.00    +0.078 C 
ATOM     28  C   UNL     1     -20.811 -42.233  26.639  0.00  0.00    +0.199 C 
ATOM     29  C   UNL     1     -22.087 -42.639  26.315  0.00  0.00    +0.042 C 
ATOM     30  C   UNL     1     -22.330 -43.882  25.749  0.00  0.00    +0.003 C 
ATOM     31  C   UNL     1     -21.243 -44.699  25.521  0.00  0.00    +0.000 C 
ATOM     32  C   UNL     1     -19.946 -44.308  25.842  0.00  0.00    +0.006 C 
BRANCH  28  33
ATOM     33  O   UNL     1     -20.573 -40.991  27.204  0.00  0.00    -0.286 OA
BRANCH  33  34
ATOM     34  O   UNL     1     -21.461 -40.030  27.041  0.00  0.00    -0.287 OA
BRANCH  34  35
ATOM     35  C   UNL     1     -21.520 -39.496  25.755  0.00  0.00    +0.195 C 
ATOM     36  C   UNL     1     -20.818 -40.308  24.752  0.00  0.00    +0.040 C 
ATOM     37  C   UNL     1     -21.385 -40.823  23.664  0.00  0.00    +0.009 C 
ATOM     38  C   UNL     1     -22.795 -40.589  23.413  0.00  0.00    +0.148 C 
ATOM     39  N   UNL     1     -23.111 -41.188  22.303  0.00  0.00    -0.262 NA
ATOM     40  C   UNL     1     -21.966 -41.839  21.761  0.00  0.00    +0.094 C 
ATOM     41  C   UNL     1     -20.910 -41.639  22.554  0.00  0.00    +0.018 C 
ATOM     42  C   UNL     1     -23.522 -39.789  24.382  0.00  0.00    +0.005 C 
ATOM     43  C   UNL     1     -22.929 -39.309  25.425  0.00  0.00    +0.040 C 
ENDBRANCH  34  35
ENDBRANCH  33  34
ENDBRANCH  28  33
ENDBRANCH  25  27
ENDBRANCH  10  25
TORSDOF 7
