MODEL 1
REMARK VINA RESULT:    -6.965      0.000      0.000
REMARK INTER + INTRA:          -9.317
REMARK INTER:                  -8.594
REMARK INTRA:                  -0.723
REMARK UNBOUND:                -0.723
REMARK  Name = =
REMARK  4 active torsions:
REMARK  status: ('A' for Active; 'I' for Inactive)
REMARK    1  A    between atoms: C_5  and  N_9
REMARK    2  A    between atoms: C_6  and  C_16
REMARK    3  A    between atoms: C_19  and  O_22
REMARK    4  A    between atoms: O_22  and  C_23
REMARK                            x       y       z     vdW  Elec       q    Type
REMARK                         _______ _______ _______ _____ _____    ______ ____
ROOT
ATOM      1  N   UNL     1      59.910 158.365  41.897  0.00  0.00    -0.275 N 
ATOM      2  C   UNL     1      60.880 159.212  41.512  0.00  0.00    +0.328 A 
ATOM      3  O   UNL     1      62.049 158.757  41.404  0.00  0.00    -0.247 OA
ATOM      4  N   UNL     1      60.607 160.505  41.250  0.00  0.00    -0.295 N 
ATOM      5  C   UNL     1      59.315 160.926  41.391  0.00  0.00    +0.117 A 
ATOM      6  C   UNL     1      58.317 160.090  41.777  0.00  0.00    +0.086 A 
ATOM      7  C   UNL     1      58.627 158.751  42.043  0.00  0.00    +0.264 A 
ATOM      8  O   UNL     1      57.712 157.977  42.400  0.00  0.00    -0.267 OA
ATOM      9  H   UNL     1      60.146 157.426  42.078  0.00  0.00    +0.173 HD
ATOM     10  H   UNL     1      61.316 161.128  40.967  0.00  0.00    +0.172 HD
ENDROOT
BRANCH   5  11
ATOM     11  N   UNL     1      59.076 162.273  41.119  0.00  0.00    -0.295 N 
ATOM     12  C   UNL     1      58.698 162.736  39.818  0.00  0.00    +0.092 C 
ATOM     13  C   UNL     1      59.880 163.505  39.237  0.00  0.00    +0.021 C 
ATOM     14  C   UNL     1      60.219 164.652  40.161  0.00  0.00    +0.002 C 
ATOM     15  C   UNL     1      61.257 164.223  41.163  0.00  0.00    +0.002 C 
ATOM     16  C   UNL     1      60.689 163.630  42.419  0.00  0.00    +0.021 C 
ATOM     17  C   UNL     1      59.273 163.132  42.288  0.00  0.00    +0.092 C 
ENDBRANCH   5  11
BRANCH   6  18
ATOM     18  C   UNL     1      56.957 160.558  41.901  0.00  0.00    +0.007 C 
ATOM     19  C   UNL     1      56.428 161.195  42.998  0.00  0.00    +0.003 C 
ATOM     20  C   UNL     1      55.084 161.589  43.028  0.00  0.00    +0.037 C 
ATOM     21  C   UNL     1      54.232 161.358  41.969  0.00  0.00    +0.145 C 
ATOM     22  C   UNL     1      54.753 160.719  40.866  0.00  0.00    +0.037 C 
ATOM     23  C   UNL     1      56.081 160.329  40.833  0.00  0.00    +0.003 C 
BRANCH  21  24
ATOM     24  O   UNL     1      52.913 161.772  42.062  0.00  0.00    -0.453 OA
BRANCH  24  25
ATOM     25  C   UNL     1      51.831 160.948  42.113  0.00  0.00    +0.145 C 
ATOM     26  C   UNL     1      50.545 161.385  41.804  0.00  0.00    +0.037 C 
ATOM     27  C   UNL     1      49.464 160.541  41.861  0.00  0.00    +0.003 C 
ATOM     28  C   UNL     1      49.616 159.228  42.230  0.00  0.00    +0.000 C 
ATOM     29  C   UNL     1      50.876 158.770  42.541  0.00  0.00    +0.003 C 
ATOM     30  C   UNL     1      51.975 159.634  42.481  0.00  0.00    +0.037 C 
ENDBRANCH  24  25
ENDBRANCH  21  24
ENDBRANCH   6  18
TORSDOF 4
ENDMDL
