REMARK  Name = =
REMARK  6 active torsions:
REMARK  status: ('A' for Active; 'I' for Inactive)
REMARK    1  A    between atoms: C_1  and  C_15
REMARK    2  A    between atoms: C_2  and  O_22
REMARK    3  A    between atoms: C_6  and  O_21
REMARK    4  A    between atoms: C_8  and  O_20
REMARK    5  A    between atoms: C_12  and  O_18
REMARK    6  A    between atoms: C_13  and  O_19
REMARK                            x       y       z     vdW  Elec       q    Type
REMARK                         _______ _______ _______ _____ _____    ______ ____
ROOT
ATOM      1  C   UNL     1     -20.117 -41.488  24.137  0.00  0.00    +0.182 A 
ATOM      2  C   UNL     1     -18.922 -41.011  23.697  0.00  0.00    +0.208 A 
ATOM      3  C   UNL     1     -18.806 -40.461  22.408  0.00  0.00    +0.238 A 
ATOM      4  O   UNL     1     -17.697 -40.035  22.041  0.00  0.00    -0.283 OA
ATOM      5  C   UNL     1     -19.933 -40.427  21.623  0.00  0.00    +0.110 A 
ATOM      6  C   UNL     1     -19.907 -39.903  20.342  0.00  0.00    +0.143 C 
ATOM      7  C   UNL     1     -21.088 -39.880  19.554  0.00  0.00    +0.073 C 
ATOM      8  C   UNL     1     -22.239 -40.382  20.080  0.00  0.00    +0.140 C 
ATOM      9  C   UNL     1     -22.273 -40.902  21.348  0.00  0.00    +0.074 C 
ATOM     10  C   UNL     1     -21.132 -40.935  22.140  0.00  0.00    +0.155 A 
ATOM     11  O   UNL     1     -21.193 -41.434  23.336  0.00  0.00    -0.450 OA
ENDROOT
BRANCH   1  15
ATOM     12  C   UNL     1     -20.752 -43.242  27.951  0.00  0.00    +0.167 C 
ATOM     13  C   UNL     1     -21.658 -43.422  26.934  0.00  0.00    +0.168 C 
ATOM     14  C   UNL     1     -21.413 -42.826  25.688  0.00  0.00    +0.043 C 
ATOM     15  C   UNL     1     -20.283 -42.063  25.461  0.00  0.00    +0.041 C 
ATOM     16  C   UNL     1     -19.406 -41.902  26.479  0.00  0.00    +0.006 C 
ATOM     17  C   UNL     1     -19.611 -42.479  27.740  0.00  0.00    +0.040 C 
BRANCH  12  18
ATOM     18  O   UNL     1     -20.927 -43.802  29.212  0.00  0.00    -0.503 OA
ATOM     19  H   UNL     1     -21.685 -44.323  29.392  0.00  0.00    +0.292 HD
ENDBRANCH  12  18
BRANCH  13  20
ATOM     20  O   UNL     1     -22.793 -44.166  27.104  0.00  0.00    -0.503 OA
ATOM     21  H   UNL     1     -22.969 -44.570  27.931  0.00  0.00    +0.292 HD
ENDBRANCH  13  20
ENDBRANCH   1  15
BRANCH   8  22
ATOM     22  O   UNL     1     -23.418 -40.375  19.332  0.00  0.00    -0.505 OA
ATOM     23  H   UNL     1     -23.419 -40.025  18.463  0.00  0.00    +0.292 HD
ENDBRANCH   8  22
BRANCH   6  24
ATOM     24  O   UNL     1     -18.767 -39.403  19.811  0.00  0.00    -0.505 OA
ATOM     25  H   UNL     1     -17.975 -39.408  20.312  0.00  0.00    +0.292 HD
ENDBRANCH   6  24
BRANCH   2  26
ATOM     26  O   UNL     1     -17.751 -41.028  24.466  0.00  0.00    -0.501 OA
ATOM     27  H   UNL     1     -17.765 -41.382  25.333  0.00  0.00    +0.292 HD
ENDBRANCH   2  26
TORSDOF 6
