REMARK  Name = =
REMARK  7 active torsions:
REMARK  status: ('A' for Active; 'I' for Inactive)
REMARK    1  A    between atoms: C_1  and  O_22
REMARK    2  A    between atoms: C_2  and  O_21
REMARK    3  A    between atoms: C_4  and  C_7
REMARK    4  A    between atoms: C_8  and  O_20
REMARK    5  A    between atoms: C_12  and  O_19
REMARK    6  A    between atoms: C_14  and  O_18
REMARK    7  A    between atoms: O_22  and  C_24
REMARK                            x       y       z     vdW  Elec       q    Type
REMARK                         _______ _______ _______ _____ _____    ______ ____
ROOT
ATOM      1  C   UNL     1     -17.107 -38.916  20.626  0.00  0.00    +0.175 C 
ATOM      2  C   UNL     1     -16.460 -39.739  21.565  0.00  0.00    +0.168 C 
ATOM      3  C   UNL     1     -17.142 -40.315  22.610  0.00  0.00    +0.043 C 
ATOM      4  C   UNL     1     -18.519 -40.108  22.789  0.00  0.00    +0.041 C 
ATOM      5  C   UNL     1     -19.108 -39.306  21.860  0.00  0.00    +0.006 C 
ATOM      6  C   UNL     1     -18.451 -38.707  20.790  0.00  0.00    +0.040 C 
ENDROOT
BRANCH   4   7
ATOM      7  C   UNL     1     -19.160 -40.752  23.920  0.00  0.00    +0.182 A 
ATOM      8  C   UNL     1     -20.479 -41.106  23.946  0.00  0.00    +0.208 A 
ATOM      9  C   UNL     1     -21.057 -41.729  25.060  0.00  0.00    +0.238 A 
ATOM     10  O   UNL     1     -22.259 -42.062  25.104  0.00  0.00    -0.283 OA
ATOM     11  C   UNL     1     -20.246 -41.975  26.135  0.00  0.00    +0.110 A 
ATOM     12  C   UNL     1     -20.722 -42.590  27.288  0.00  0.00    +0.143 C 
ATOM     13  C   UNL     1     -19.875 -42.822  28.353  0.00  0.00    +0.073 C 
ATOM     14  C   UNL     1     -18.545 -42.461  28.319  0.00  0.00    +0.140 C 
ATOM     15  C   UNL     1     -18.093 -41.856  27.174  0.00  0.00    +0.074 C 
ATOM     16  C   UNL     1     -18.923 -41.605  26.072  0.00  0.00    +0.155 A 
ATOM     17  O   UNL     1     -18.449 -41.029  25.008  0.00  0.00    -0.450 OA
BRANCH  14  18
ATOM     18  O   UNL     1     -17.719 -42.709  29.409  0.00  0.00    -0.505 OA
ATOM     19  H   UNL     1     -18.065 -43.125  30.174  0.00  0.00    +0.292 HD
ENDBRANCH  14  18
BRANCH  12  20
ATOM     20  O   UNL     1     -22.034 -42.938  27.303  0.00  0.00    -0.505 OA
ATOM     21  H   UNL     1     -22.574 -42.762  26.558  0.00  0.00    +0.292 HD
ENDBRANCH  12  20
BRANCH   8  22
ATOM     22  O   UNL     1     -21.321 -40.876  22.886  0.00  0.00    -0.501 OA
ATOM     23  H   UNL     1     -20.996 -40.462  22.111  0.00  0.00    +0.292 HD
ENDBRANCH   8  22
ENDBRANCH   4   7
BRANCH   2  24
ATOM     24  O   UNL     1     -15.102 -39.955  21.405  0.00  0.00    -0.503 OA
ATOM     25  H   UNL     1     -14.646 -39.558  20.689  0.00  0.00    +0.292 HD
ENDBRANCH   2  24
BRANCH   1  26
ATOM     26  O   UNL     1     -16.360 -38.371  19.600  0.00  0.00    -0.449 OA
BRANCH  26  28
ATOM     27  O   UNL     1     -17.053 -37.458  17.641  0.00  0.00    -0.315 OA
ATOM     28  C   UNL     1     -16.559 -37.179  18.925  0.00  0.00    +0.292 C 
ATOM     29  C   UNL     1     -15.275 -36.412  18.918  0.00  0.00    +0.102 C 
ATOM     30  C   UNL     1     -14.738 -36.141  17.564  0.00  0.00    -0.018 C 
ATOM     31  C   UNL     1     -15.627 -36.055  16.517  0.00  0.00    +0.004 C 
ATOM     32  C   UNL     1     -15.193 -35.802  15.254  0.00  0.00    -0.002 C 
ATOM     33  C   UNL     1     -13.840 -35.635  15.049  0.00  0.00    -0.000 C 
ATOM     34  C   UNL     1     -12.930 -35.720  16.095  0.00  0.00    -0.000 C 
ATOM     35  C   UNL     1     -13.371 -35.977  17.381  0.00  0.00    -0.004 C 
ATOM     36  C   UNL     1     -17.075 -36.265  16.876  0.00  0.00    +0.172 C 
ENDBRANCH  26  28
ENDBRANCH   1  26
TORSDOF 7
