REMARK  Name = =
REMARK  0 active torsions:
REMARK  status: ('A' for Active; 'I' for Inactive)
REMARK                            x       y       z     vdW  Elec       q    Type
REMARK                         _______ _______ _______ _____ _____    ______ ____
ROOT
ATOM      1  C   UNL     1      52.511 155.832  27.307  0.00  0.00    +0.041 C 
ATOM      2  C   UNL     1      52.196 154.578  26.836  0.00  0.00    -0.009 C 
ATOM      3  C   UNL     1      51.441 153.653  27.674  0.00  0.00    +0.029 C 
ATOM      4  C   UNL     1      51.627 153.799  29.142  0.00  0.00    +0.026 C 
ATOM      5  C   UNL     1      51.723 155.209  29.630  0.00  0.00    +0.087 C 
ATOM      6  N   UNL     1      52.070 156.158  28.616  0.00  0.00    -0.333 N 
ATOM      7  C   UNL     1      52.604 154.200  25.550  0.00  0.00    -0.003 C 
ATOM      8  C   UNL     1      53.316 155.066  24.748  0.00  0.00    -0.000 C 
ATOM      9  C   UNL     1      53.627 156.322  25.227  0.00  0.00    +0.001 C 
ATOM     10  C   UNL     1      53.223 156.702  26.508  0.00  0.00    +0.014 C 
ATOM     11  H   UNL     1      51.997 157.113  28.845  0.00  0.00    +0.147 HD
ENDROOT
TORSDOF 0
