REMARK  Name = =
REMARK  0 active torsions:
REMARK  status: ('A' for Active; 'I' for Inactive)
REMARK                            x       y       z     vdW  Elec       q    Type
REMARK                         _______ _______ _______ _____ _____    ______ ____
ROOT
ATOM      1  C   UNL     1      52.739 155.614  27.271  0.00  0.00    +0.053 C 
ATOM      2  C   UNL     1      52.629 154.310  26.834  0.00  0.00    -0.008 C 
ATOM      3  C   UNL     1      51.997 153.319  27.744  0.00  0.00    +0.029 C 
ATOM      4  C   UNL     1      50.947 154.043  28.537  0.00  0.00    +0.027 C 
ATOM      5  C   UNL     1      51.691 155.041  29.434  0.00  0.00    +0.103 C 
ATOM      6  N   UNL     1      52.269 156.027  28.554  0.00  0.00    -0.255 N 
ATOM      7 BR   UNL     1      52.439 157.850  29.007  0.00  0.00    +0.038 Br
ATOM      8  C   UNL     1      53.099 153.962  25.585  0.00  0.00    -0.003 C 
ATOM      9  C   UNL     1      53.687 154.907  24.748  0.00  0.00    -0.000 C 
ATOM     10  C   UNL     1      53.804 156.215  25.172  0.00  0.00    +0.001 C 
ATOM     11  C   UNL     1      53.327 156.541  26.424  0.00  0.00    +0.015 C 
ENDROOT
TORSDOF 0
