REMARK  Name = =
REMARK  6 active torsions:
REMARK  status: ('A' for Active; 'I' for Inactive)
REMARK    1  A    between atoms: N_1  and  N_24
REMARK    2  A    between atoms: C_12  and  C_39
REMARK    3  A    between atoms: C_18  and  N_19
REMARK    4  A    between atoms: N_24  and  S_25
REMARK    5  A    between atoms: S_25  and  N_28
REMARK    6  A    between atoms: C_33  and  N_38
REMARK                            x       y       z     vdW  Elec       q    Type
REMARK                         _______ _______ _______ _____ _____    ______ ____
ROOT
ATOM      1  N   UNL     1       1.605  -5.742  27.455  0.00  0.00    -0.185 NA
ATOM      2  C   UNL     1       1.779  -4.319  27.496  0.00  0.00    +0.085 C 
ATOM      3  C   UNL     1       3.195  -3.920  27.833  0.00  0.00    +0.045 C 
ATOM      4  C   UNL     1       4.070  -4.540  26.815  0.00  0.00    +0.067 C 
ATOM      5  C   UNL     1       5.495  -4.037  26.761  0.00  0.00    +0.174 C 
ATOM      6  O   UNL     1       5.802  -4.480  25.397  0.00  0.00    -0.479 OA
ATOM      7  C   UNL     1       4.661  -4.084  24.648  0.00  0.00    +0.135 C 
ATOM      8  C   UNL     1       3.593  -4.093  25.491  0.00  0.00    +0.011 C 
ATOM      9  C   UNL     1       2.336  -3.768  25.158  0.00  0.00    -0.022 C 
ATOM     10  C   UNL     1       2.126  -3.398  23.832  0.00  0.00    -0.004 C 
ATOM     11  C   UNL     1       3.192  -3.377  22.926  0.00  0.00    +0.003 C 
ATOM     12  C   UNL     1       4.484  -3.724  23.330  0.00  0.00    +0.041 C 
ATOM     13  C   UNL     1       1.273  -3.776  26.187  0.00  0.00    +0.044 C 
ATOM     14  C   UNL     1       5.542  -2.558  26.833  0.00  0.00    +0.070 C 
ATOM     15  C   UNL     1       4.361  -1.869  27.349  0.00  0.00    -0.027 C 
ATOM     16  C   UNL     1       3.281  -2.433  27.811  0.00  0.00    -0.029 C 
ATOM     17  C   UNL     1       3.991  -6.026  26.901  0.00  0.00    +0.046 C 
ATOM     18  C   UNL     1       2.562  -6.431  26.646  0.00  0.00    +0.155 C 
ENDROOT
BRANCH  18  19
ATOM     19  N   UNL     1       2.456  -7.846  26.853  0.00  0.00    -0.237 N 
ATOM     20  C   UNL     1       3.038  -8.576  27.810  0.00  0.00    +0.193 C 
ATOM     21  N   UNL     1       2.696  -9.869  27.671  0.00  0.00    -0.128 NA
ATOM     22  N   UNL     1       1.899  -9.942  26.627  0.00  0.00    -0.128 NA
ATOM     23  C   UNL     1       1.742  -8.702  26.110  0.00  0.00    +0.193 C 
ENDBRANCH  18  19
BRANCH   1  24
ATOM     24  N   UNL     1       1.285  -6.333  28.638  0.00  0.00    -0.106 NA
ATOM     25  H   UNL     1       1.414  -5.669  29.402  0.00  0.00    +0.169 HD
BRANCH  24  26
ATOM     26  S   UNL     1      -0.385  -6.830  28.562  0.00  0.00    +0.132 S 
ATOM     27  O   UNL     1      -0.488  -8.314  28.868  0.00  0.00    -0.136 OA
ATOM     28  O   UNL     1      -0.927  -6.640  27.166  0.00  0.00    -0.136 OA
BRANCH  26  29
ATOM     29  N   UNL     1      -1.359  -5.911  29.640  0.00  0.00    -0.120 N 
ATOM     30  C   UNL     1      -1.916  -6.327  30.794  0.00  0.00    +0.181 A 
ATOM     31  N   UNL     1      -1.902  -7.507  31.444  0.00  0.00    -0.195 NA
ATOM     32  C   UNL     1      -2.548  -7.682  32.607  0.00  0.00    +0.216 A 
ATOM     33  N   UNL     1      -3.239  -6.657  33.160  0.00  0.00    -0.198 NA
ATOM     34  C   UNL     1      -3.307  -5.442  32.578  0.00  0.00    +0.149 A 
ATOM     35  C   UNL     1      -2.633  -5.288  31.380  0.00  0.00    +0.147 A 
ATOM     36  N   UNL     1      -2.494  -4.245  30.557  0.00  0.00    -0.220 NA
ATOM     37  C   UNL     1      -1.734  -4.615  29.517  0.00  0.00    +0.191 C 
ATOM     38  N   UNL     1      -2.500  -8.959  33.255  0.00  0.00    -0.327 N 
ATOM     39  H   UNL     1      -1.996  -9.699  32.847  0.00  0.00    +0.145 HD
ATOM     40  H   UNL     1      -2.971  -9.096  34.108  0.00  0.00    +0.145 HD
BRANCH  34  41
ATOM     41  N   UNL     1      -4.028  -4.359  33.147  0.00  0.00    -0.341 N 
ATOM     42  H   UNL     1      -4.504  -4.479  34.000  0.00  0.00    +0.144 HD
ATOM     43  H   UNL     1      -4.051  -3.488  32.688  0.00  0.00    +0.144 HD
ENDBRANCH  34  41
ENDBRANCH  26  29
ENDBRANCH  24  26
ENDBRANCH   1  24
BRANCH  12  44
ATOM     44  C   UNL     1       5.614  -3.710  22.410  0.00  0.00    +0.045 C 
ATOM     45  S   UNL     1       5.831  -4.973  21.397  0.00  0.00    -0.050 S 
ENDBRANCH  12  44
TORSDOF 6
