MODEL 1
REMARK VINA RESULT:    -9.375      0.000      0.000
REMARK INTER + INTRA:         -14.661
REMARK INTER:                 -12.937
REMARK INTRA:                  -1.724
REMARK UNBOUND:                -1.724
REMARK  Name = =
REMARK  7 active torsions:
REMARK  status: ('A' for Active; 'I' for Inactive)
REMARK    1  A    between atoms: C_1  and  O_42
REMARK    2  A    between atoms: C_2  and  C_7
REMARK    3  A    between atoms: C_4  and  N_21
REMARK    4  A    between atoms: C_4  and  C_30
REMARK    5  A    between atoms: C_35  and  N_36
REMARK    6  A    between atoms: O_42  and  P_44
REMARK    7  A    between atoms: P_44  and  O_46
REMARK                            x       y       z     vdW  Elec       q    Type
REMARK                         _______ _______ _______ _____ _____    ______ ____
ROOT
ATOM      1  C   UNL     1       1.966  -6.765  27.434  0.00  0.00    +0.129 C 
ATOM      2  C   UNL     1       2.733  -5.607  27.917  0.00  0.00    +0.052 C 
ATOM      3  C   UNL     1       1.854  -4.449  28.359  0.00  0.00    +0.025 C 
ATOM      4  C   UNL     1       0.727  -4.815  29.321  0.00  0.00    +0.066 C 
ATOM      5  C   UNL     1       0.035  -5.931  28.559  0.00  0.00    +0.021 C 
ATOM      6  C   UNL     1       0.948  -7.152  28.541  0.00  0.00    +0.032 C 
ENDROOT
BRANCH   2   7
ATOM      7  C   UNL     1       3.599  -5.062  26.826  0.00  0.00    -0.017 C 
ATOM      8  C   UNL     1       3.169  -4.014  26.050  0.00  0.00    -0.004 C 
ATOM      9  C   UNL     1       4.020  -3.463  25.084  0.00  0.00    +0.003 C 
ATOM     10  C   UNL     1       5.275  -3.977  24.918  0.00  0.00    +0.037 C 
ATOM     11  C   UNL     1       5.705  -5.047  25.716  0.00  0.00    +0.139 C 
ATOM     12  C   UNL     1       4.897  -5.598  26.664  0.00  0.00    +0.030 C 
ATOM     13  C   UNL     1       5.305  -6.727  27.527  0.00  0.00    +0.002 C 
ATOM     14  C   UNL     1       6.690  -7.190  27.197  0.00  0.00    +0.022 C 
ATOM     15  C   UNL     1       7.455  -6.614  26.253  0.00  0.00    +0.210 C 
ATOM     16  O   UNL     1       6.977  -5.562  25.524  0.00  0.00    -0.470 OA
ATOM     17  C   UNL     1       8.743  -7.101  26.021  0.00  0.00    +0.021 C 
ATOM     18  C   UNL     1       9.254  -8.152  26.725  0.00  0.00    -0.001 C 
ATOM     19  C   UNL     1       8.449  -8.734  27.695  0.00  0.00    -0.000 C 
ATOM     20  C   UNL     1       7.178  -8.274  27.946  0.00  0.00    -0.000 C 
ENDBRANCH   2   7
BRANCH   4  21
ATOM     21  N   UNL     1       1.294  -5.259  30.596  0.00  0.00    -0.272 N 
ATOM     22  C   UNL     1       2.443  -4.818  31.140  0.00  0.00    +0.168 C 
ATOM     23  N   UNL     1       2.686  -5.432  32.333  0.00  0.00    -0.226 NA
ATOM     24  C   UNL     1       1.694  -6.269  32.563  0.00  0.00    +0.096 C 
ATOM     25  C   UNL     1       0.824  -6.156  31.473  0.00  0.00    +0.070 C 
ATOM     26  C   UNL     1      -0.284  -6.947  31.536  0.00  0.00    +0.016 C 
ATOM     27  C   UNL     1      -0.573  -7.819  32.581  0.00  0.00    +0.001 C 
ATOM     28  C   UNL     1       0.296  -7.909  33.634  0.00  0.00    +0.002 C 
ATOM     29  C   UNL     1       1.427  -7.135  33.620  0.00  0.00    +0.020 C 
ENDBRANCH   4  21
BRANCH   4  30
ATOM     30  C   UNL     1      -0.233  -3.702  29.523  0.00  0.00    +0.045 C 
ATOM     31  C   UNL     1       0.054  -2.512  28.604  0.00  0.00    +0.068 C 
ATOM     32  C   UNL     1      -0.899  -2.822  27.451  0.00  0.00    +0.153 C 
ATOM     33  O   UNL     1      -0.662  -2.630  26.263  0.00  0.00    -0.296 OA
ATOM     34  C   UNL     1      -2.052  -3.363  28.164  0.00  0.00    +0.086 C 
ATOM     35  C   UNL     1      -1.662  -3.861  29.361  0.00  0.00    +0.110 C 
BRANCH  35  36
ATOM     36  N   UNL     1      -2.619  -4.385  30.316  0.00  0.00    -0.165 N 
ATOM     37  N   UNL     1      -2.989  -5.652  30.400  0.00  0.00    -0.156 NA
ATOM     38  C   UNL     1      -3.892  -5.844  31.379  0.00  0.00    +0.187 C 
ATOM     39  N   UNL     1      -4.095  -4.635  31.934  0.00  0.00    -0.249 N 
ATOM     40  C   UNL     1      -3.300  -3.761  31.260  0.00  0.00    +0.328 C 
ATOM     41  O   UNL     1      -3.243  -2.536  31.521  0.00  0.00    -0.250 OA
ATOM     42  H   UNL     1      -4.701  -4.425  32.681  0.00  0.00    +0.158 HD
ENDBRANCH  35  36
ENDBRANCH   4  30
BRANCH   1  43
ATOM     43  O   UNL     1       1.412  -6.847  26.222  0.00  0.00    -0.289 OA
BRANCH  43  45
ATOM     44  S   UNL     1       2.833  -9.263  26.173  0.00  0.00    +0.039 S 
ATOM     45  P   UNL     1       2.057  -8.057  25.218  0.00  0.00    +0.400 P 
ATOM     46  O   UNL     1       3.006  -7.438  24.221  0.00  0.00    -0.245 OA
BRANCH  45  47
ATOM     47  O   UNL     1       0.824  -8.824  24.337  0.00  0.00    -0.316 OA
ATOM     48  H   UNL     1       0.938  -8.639  23.392  0.00  0.00    +0.221 HD
ENDBRANCH  45  47
ENDBRANCH  43  45
ENDBRANCH   1  43
TORSDOF 7
ENDMDL
