MODEL 1
REMARK VINA RESULT:    -9.987      0.000      0.000
REMARK INTER + INTRA:         -18.305
REMARK INTER:                 -16.993
REMARK INTRA:                  -1.312
REMARK UNBOUND:                -1.312
REMARK  Name = =
REMARK  14 active torsions:
REMARK  status: ('A' for Active; 'I' for Inactive)
REMARK    1  A    between atoms: S_1  and  C_2
REMARK    2  A    between atoms: S_1  and  C_17
REMARK    3  A    between atoms: S_1  and  S_34
REMARK    4  A    between atoms: C_2  and  N_3
REMARK    5  A    between atoms: C_2  and  C_31
REMARK    6  A    between atoms: N_3  and  N_14
REMARK    7  A    between atoms: N_6  and  N_7
REMARK    8  A    between atoms: N_10  and  N_11
REMARK    9  A    between atoms: N_15  and  C_17
REMARK   10  A    between atoms: N_15  and  C_19
REMARK   11  A    between atoms: C_17  and  C_28
REMARK   12  A    between atoms: C_28  and  O_30
REMARK   13  A    between atoms: C_31  and  O_33
REMARK   14  A    between atoms: S_34  and  S_35
REMARK                            x       y       z     vdW  Elec       q    Type
REMARK                         _______ _______ _______ _____ _____    ______ ____
ROOT
ATOM      1  C   UNL     1     -13.081 -44.072  28.819  0.00  0.00    +0.242 C 
ENDROOT
BRANCH   1   2
ATOM      2  N   UNL     1     -13.657 -44.066  27.551  0.00  0.00    -0.191 N 
ATOM      3  C   UNL     1     -14.642 -43.195  27.075  0.00  0.00    +0.334 C 
ATOM      4  O   UNL     1     -15.101 -42.293  27.799  0.00  0.00    -0.250 OA
ATOM      5  N   UNL     1     -15.150 -43.313  25.755  0.00  0.00    -0.216 N 
ATOM      6  H   UNL     1     -14.758 -44.042  25.221  0.00  0.00    +0.174 HD
BRANCH   5   7
ATOM      7  N   UNL     1     -16.103 -42.567  25.107  0.00  0.00    -0.216 N 
ATOM      8  C   UNL     1     -15.985 -41.838  23.928  0.00  0.00    +0.332 C 
ATOM      9  O   UNL     1     -14.947 -41.756  23.276  0.00  0.00    -0.250 OA
ATOM     10  N   UNL     1     -17.130 -41.114  23.399  0.00  0.00    -0.217 N 
ATOM     11  H   UNL     1     -16.990 -42.545  25.534  0.00  0.00    +0.174 HD
ATOM     12  H   UNL     1     -17.993 -41.136  23.872  0.00  0.00    +0.174 HD
BRANCH  10  13
ATOM     13  N   UNL     1     -16.996 -40.383  22.208  0.00  0.00    -0.225 N 
ATOM     14  C   UNL     1     -18.059 -39.633  21.662  0.00  0.00    +0.316 C 
ATOM     15  O   UNL     1     -19.171 -39.614  22.256  0.00  0.00    -0.264 OA
ATOM     16  H   UNL     1     -16.131 -40.394  21.739  0.00  0.00    +0.173 HD
ENDBRANCH  10  13
ENDBRANCH   5   7
BRANCH   2  17
ATOM     17  N   UNL     1     -13.196 -45.077  26.645  0.00  0.00    -0.248 NA
ATOM     18  H   UNL     1     -13.961 -45.716  26.431  0.00  0.00    +0.141 HD
ATOM     19  H   UNL     1     -12.430 -45.596  27.076  0.00  0.00    +0.141 HD
ENDBRANCH   2  17
ENDBRANCH   1   2
BRANCH   1  20
ATOM     20  C   UNL     1     -13.693 -44.244  30.102  0.00  0.00    +0.344 C 
ATOM     21  O   UNL     1     -14.064 -43.191  30.766  0.00  0.00    -0.247 OA
BRANCH  20  22
ATOM     22  O   UNL     1     -13.921 -45.446  30.700  0.00  0.00    -0.478 OA
ATOM     23  H   UNL     1     -14.521 -46.054  30.315  0.00  0.00    +0.295 HD
ENDBRANCH  20  22
ENDBRANCH   1  20
BRANCH   1  24
ATOM     24  S   UNL     1     -11.398 -43.893  28.841  0.00  0.00    -0.059 S 
BRANCH  24  25
ATOM     25  C   UNL     1     -10.480 -45.227  29.682  0.00  0.00    +0.261 C 
BRANCH  25  26
ATOM     26  N   UNL     1     -10.483 -45.201  30.980  0.00  0.00    -0.187 N 
ATOM     27  O   UNL     1     -11.423 -45.959  31.667  0.00  0.00    -0.083 OA
BRANCH  26  29
ATOM     28  C   UNL     1      -9.956 -43.436  32.523  0.00  0.00    +0.018 C 
ATOM     29  C   UNL     1      -9.521 -44.434  31.678  0.00  0.00    +0.086 C 
ATOM     30  C   UNL     1      -8.166 -44.673  31.543  0.00  0.00    +0.019 C 
ATOM     31  C   UNL     1      -7.212 -43.956  32.219  0.00  0.00    +0.002 C 
ATOM     32  C   UNL     1      -7.646 -42.958  33.064  0.00  0.00    +0.000 C 
ATOM     33  C   UNL     1      -9.004 -42.691  33.221  0.00  0.00    +0.001 C 
ATOM     34  C   UNL     1      -9.424 -41.692  34.082  0.00  0.00    +0.000 C 
ATOM     35  C   UNL     1     -10.748 -41.456  34.230  0.00  0.00    +0.000 C 
ATOM     36  C   UNL     1     -11.729 -42.165  33.564  0.00  0.00    +0.000 C 
ATOM     37  C   UNL     1     -11.302 -43.159  32.708  0.00  0.00    +0.001 C 
ENDBRANCH  26  29
ENDBRANCH  25  26
BRANCH  25  38
ATOM     38  C   UNL     1      -9.879 -46.247  28.871  0.00  0.00    +0.348 C 
ATOM     39  O   UNL     1     -10.220 -46.532  27.717  0.00  0.00    -0.247 OA
BRANCH  38  40
ATOM     40  O   UNL     1      -8.819 -46.994  29.407  0.00  0.00    -0.478 OA
ATOM     41  H   UNL     1      -8.297 -47.536  28.848  0.00  0.00    +0.295 HD
ENDBRANCH  38  40
ENDBRANCH  25  38
ENDBRANCH  24  25
BRANCH  24  42
ATOM     42  S   UNL     1     -10.769 -41.846  29.162  0.00  0.00    -0.033 S 
BRANCH  42  43
ATOM     43  S   UNL     1      -9.024 -41.349  28.104  0.00  0.00    -0.100 S 
ATOM     44  H   UNL     1      -9.347 -40.573  27.034  0.00  0.00    +0.115 HD
ENDBRANCH  42  43
ENDBRANCH  24  42
ENDBRANCH   1  24
TORSDOF 14
ENDMDL
