REMARK  Name = =
REMARK  3 active torsions:
REMARK  status: ('A' for Active; 'I' for Inactive)
REMARK    1  A    between atoms: P_1  and  O_3
REMARK    2  A    between atoms: P_1  and  O_4
REMARK    3  A    between atoms: P_1  and  O_5
REMARK                            x       y       z     vdW  Elec       q    Type
REMARK                         _______ _______ _______ _____ _____    ______ ____
ROOT
ATOM      1  P   UNL     1      -3.608  -4.601  30.977  0.00  0.00    +0.470 P 
ATOM      2  O   UNL     1      -4.231  -5.046  32.284  0.00  0.00    -0.228 OA
ENDROOT
BRANCH   1   3
ATOM      3  O   UNL     1      -2.874  -5.900  30.239  0.00  0.00    -0.303 OA
ATOM      4  H   UNL     1      -2.198  -6.268  30.829  0.00  0.00    +0.222 HD
ENDBRANCH   1   3
BRANCH   1   5
ATOM      5  O   UNL     1      -4.783  -3.984  29.917  0.00  0.00    -0.303 OA
ATOM      6  H   UNL     1      -5.223  -3.224  30.329  0.00  0.00    +0.222 HD
ENDBRANCH   1   5
BRANCH   1   7
ATOM      7  O   UNL     1      -2.547  -3.342  31.334  0.00  0.00    -0.303 OA
ATOM      8  H   UNL     1      -1.860  -3.660  31.940  0.00  0.00    +0.222 HD
ENDBRANCH   1   7
TORSDOF 3
