REMARK  Name = =
REMARK  4 active torsions:
REMARK  status: ('A' for Active; 'I' for Inactive)
REMARK    1  A    between atoms: N_1  and  O_19
REMARK    2  A    between atoms: O_19  and  P_20
REMARK    3  A    between atoms: P_20  and  O_22
REMARK    4  A    between atoms: P_20  and  O_23
REMARK                            x       y       z     vdW  Elec       q    Type
REMARK                         _______ _______ _______ _____ _____    ______ ____
ROOT
ATOM      1  N   UNL     1      -5.054  -3.151  31.487  0.00  0.00    -0.130 N 
ATOM      2  C   UNL     1      -6.278  -2.498  31.830  0.00  0.00    +0.114 C 
ATOM      3  C   UNL     1      -6.530  -1.117  31.865  0.00  0.00    +0.158 C 
ATOM      4  N   UNL     1      -7.732  -0.643  32.216  0.00  0.00    -0.227 NA
ATOM      5  C   UNL     1      -8.753  -1.484  32.551  0.00  0.00    +0.100 C 
ATOM      6  C   UNL     1      -8.513  -2.830  32.520  0.00  0.00    +0.022 C 
ATOM      7  C   UNL     1      -7.296  -3.358  32.166  0.00  0.00    +0.022 C 
ATOM      8  N   UNL     1      -5.596  -0.066  31.559  0.00  0.00    -0.214 N 
ATOM      9  C   UNL     1      -4.524  -0.175  30.636  0.00  0.00    +0.064 C 
ATOM     10  C   UNL     1      -3.705  -1.275  30.361  0.00  0.00    +0.070 C 
ATOM     11  C   UNL     1      -2.679  -1.202  29.443  0.00  0.00    +0.006 C 
ATOM     12  C   UNL     1      -2.474  -0.006  28.791  0.00  0.00    +0.000 C 
ATOM     13  C   UNL     1      -3.275   1.076  29.054  0.00  0.00    +0.001 C 
ATOM     14  C   UNL     1      -4.299   1.001  29.970  0.00  0.00    +0.015 C 
ATOM     15  C   UNL     1      -3.843  -2.614  30.945  0.00  0.00    +0.277 C 
ATOM     16  O   UNL     1      -2.813  -3.316  30.957  0.00  0.00    -0.267 OA
ATOM     17  C   UNL     1      -5.778   1.147  32.220  0.00  0.00    +0.312 C 
ATOM     18  O   UNL     1      -5.025   2.123  32.147  0.00  0.00    -0.264 OA
ENDROOT
BRANCH   1  19
ATOM     19  O   UNL     1      -5.064  -4.480  31.712  0.00  0.00    -0.168 OA
BRANCH  19  20
ATOM     20  P   UNL     1      -4.424  -4.936  33.186  0.00  0.00    +0.492 P 
ATOM     21  O   UNL     1      -5.491  -5.093  34.253  0.00  0.00    -0.226 OA
BRANCH  20  22
ATOM     22  O   UNL     1      -3.618  -6.434  33.020  0.00  0.00    -0.301 OA
ATOM     23  H   UNL     1      -2.929  -6.357  32.341  0.00  0.00    +0.222 HD
ENDBRANCH  20  22
BRANCH  20  24
ATOM     24  O   UNL     1      -3.311  -3.812  33.769  0.00  0.00    -0.301 OA
ATOM     25  H   UNL     1      -3.745  -2.951  33.872  0.00  0.00    +0.222 HD
ENDBRANCH  20  24
ENDBRANCH  19  20
ENDBRANCH   1  19
TORSDOF 4
