REMARK  Name = =
REMARK  1 active torsions:
REMARK  status: ('A' for Active; 'I' for Inactive)
REMARK    1  A    between atoms: O_21  and  O_28
REMARK                            x       y       z     vdW  Elec       q    Type
REMARK                         _______ _______ _______ _____ _____    ______ ____
ROOT
ATOM      1  N   UNL     1      -9.093  -0.797  31.762  0.00  0.00    -0.107 N 
ATOM      2  C   UNL     1      -8.712   0.469  31.243  0.00  0.00    +0.116 C 
ATOM      3  C   UNL     1      -7.460   1.076  31.124  0.00  0.00    +0.158 C 
ATOM      4  N   UNL     1      -7.303   2.295  30.599  0.00  0.00    -0.227 NA
ATOM      5  C   UNL     1      -8.332   3.027  30.149  0.00  0.00    +0.100 C 
ATOM      6  C   UNL     1      -9.587   2.471  30.245  0.00  0.00    +0.022 C 
ATOM      7  C   UNL     1      -9.776   1.205  30.787  0.00  0.00    +0.022 C 
ATOM      8  N   UNL     1      -6.199   0.511  31.547  0.00  0.00    -0.214 N 
ATOM      9  C   UNL     1      -5.873  -0.886  31.526  0.00  0.00    +0.064 C 
ATOM     10  C   UNL     1      -6.741  -1.922  31.796  0.00  0.00    +0.070 C 
ATOM     11  C   UNL     1      -6.261  -3.202  31.760  0.00  0.00    +0.006 C 
ATOM     12  C   UNL     1      -4.934  -3.424  31.455  0.00  0.00    +0.000 C 
ATOM     13  C   UNL     1      -4.067  -2.384  31.182  0.00  0.00    +0.001 C 
ATOM     14  C   UNL     1      -4.558  -1.105  31.221  0.00  0.00    +0.015 C 
ATOM     15  C   UNL     1      -8.168  -1.855  32.096  0.00  0.00    +0.279 C 
ATOM     16  O   UNL     1      -8.630  -2.817  32.702  0.00  0.00    -0.267 OA
ATOM     17  C   UNL     1      -5.230   1.396  31.990  0.00  0.00    +0.312 C 
ATOM     18  O   UNL     1      -4.134   1.100  32.457  0.00  0.00    -0.264 OA
ATOM     19  O   UNL     1     -10.384  -0.993  31.943  0.00  0.00    -0.088 OA
ENDROOT
TORSDOF 0
REMARK  Name = =
REMARK  1 active torsions:
REMARK  status: ('A' for Active; 'I' for Inactive)
REMARK    1  A    between atoms: O_21  and  O_28
REMARK                            x       y       z     vdW  Elec       q    Type
REMARK                         _______ _______ _______ _____ _____    ______ ____
ROOT
ATOM      1  P   UNL     1     -11.218  -1.727  30.692  0.00  0.00    +0.000 P 
ENDROOT
TORSDOF 0
REMARK  Name = =
REMARK  1 active torsions:
REMARK  status: ('A' for Active; 'I' for Inactive)
REMARK    1  A    between atoms: O_21  and  O_28
REMARK                            x       y       z     vdW  Elec       q    Type
REMARK                         _______ _______ _______ _____ _____    ______ ____
ROOT
ATOM      1  O   UNL     1     -11.254  -1.497  29.175  0.00  0.00    -0.253 OA
ATOM      2  H   UNL     1     -11.731  -1.523  28.331  0.00  0.00    +0.253 HD
ENDROOT
BRANCH   1   3
ATOM      3  O   UNL     1     -10.768  -2.842  29.503  0.00  0.00    -0.253 OA
ATOM      4  H   UNL     1     -10.291  -2.816  30.347  0.00  0.00    +0.253 HD
ENDBRANCH   1   3
TORSDOF 1
REMARK  Name = =
REMARK  1 active torsions:
REMARK  status: ('A' for Active; 'I' for Inactive)
REMARK    1  A    between atoms: O_21  and  O_28
REMARK                            x       y       z     vdW  Elec       q    Type
REMARK                         _______ _______ _______ _____ _____    ______ ____
ROOT
ATOM      1  C   UNL     1     -12.319  -2.799  31.605  0.00  0.00    +0.128 C 
ATOM      2  S   UNL     1     -13.739  -1.896  32.311  0.00  0.00    -0.121 S 
ATOM      3  C   UNL     1     -13.376  -2.368  34.048  0.00  0.00    +0.076 C 
ATOM      4  C   UNL     1     -11.914  -2.660  33.926  0.00  0.00    +0.081 C 
ATOM      5  N   UNL     1     -11.594  -3.265  32.711  0.00  0.00    -0.288 NA
ATOM      6  H   UNL     1     -10.603  -3.105  32.530  0.00  0.00    +0.124 HD
ENDROOT
TORSDOF 0
REMARK  Name = =
REMARK  1 active torsions:
REMARK  status: ('A' for Active; 'I' for Inactive)
REMARK    1  A    between atoms: O_21  and  O_28
REMARK                            x       y       z     vdW  Elec       q    Type
REMARK                         _______ _______ _______ _____ _____    ______ ____
ROOT
ATOM      1  O   HOH     1     -12.204  -0.583  29.925  0.00  0.00    -0.253 OA
ATOM      2  H   HOH     0     -11.234  -0.583  29.925  0.00  0.00    +0.253 HD
ENDROOT
TORSDOF 0
