REMARK  Name = =
REMARK  9 active torsions:
REMARK  status: ('A' for Active; 'I' for Inactive)
REMARK    1  A    between atoms: P_1  and  O_2
REMARK    2  A    between atoms: P_1  and  C_3
REMARK    3  A    between atoms: P_1  and  O_13
REMARK    4  A    between atoms: P_1  and  O_14
REMARK    5  A    between atoms: P_1  and  O_15
REMARK    6  A    between atoms: C_3  and  N_8
REMARK    7  A    between atoms: N_8  and  S_9
REMARK    8  A    between atoms: S_9  and  N_12
REMARK    9  A    between atoms: O_15  and  N_16
REMARK                            x       y       z     vdW  Elec       q    Type
REMARK                         _______ _______ _______ _____ _____    ______ ____
ROOT
ATOM      1  P   UNL     1      -9.095   0.585  30.145  0.00  0.00    +0.333 P 
ENDROOT
BRANCH   1   2
ATOM      2  C   UNL     1      -7.560   1.017  30.978  0.00  0.00    +0.245 C 
ATOM      3  S   UNL     1      -6.800   2.360  29.955  0.00  0.00    -0.097 S 
ATOM      4  C   UNL     1      -7.678   3.728  30.821  0.00  0.00    +0.078 C 
ATOM      5  C   UNL     1      -8.358   2.988  31.948  0.00  0.00    +0.082 C 
ATOM      6  N   UNL     1      -7.678   1.744  32.186  0.00  0.00    -0.268 NA
ATOM      7  H   UNL     1      -6.747   1.934  32.558  0.00  0.00    +0.126 HD
BRANCH   2   8
ATOM      8  N   UNL     1      -6.761  -0.123  31.045  0.00  0.00    -0.139 NA
ATOM      9  H   UNL     1      -6.764  -0.534  30.111  0.00  0.00    +0.153 HD
BRANCH   8  10
ATOM     10  S   UNL     1      -5.152  -0.032  31.519  0.00  0.00    +0.095 S 
ATOM     11  O   UNL     1      -4.816   0.977  32.560  0.00  0.00    -0.141 OA
ATOM     12  O   UNL     1      -4.815  -1.379  32.187  0.00  0.00    -0.141 OA
BRANCH  10  13
ATOM     13  N   UNL     1      -4.071   0.017  30.158  0.00  0.00    -0.193 NA
ATOM     14  H   UNL     1      -4.347  -0.692  29.479  0.00  0.00    +0.145 HD
ATOM     15  H   UNL     1      -3.119  -0.167  30.474  0.00  0.00    +0.145 HD
ENDBRANCH  10  13
ENDBRANCH   8  10
ENDBRANCH   2   8
ENDBRANCH   1   2
BRANCH   1  16
ATOM     16  O   UNL     1     -10.329   0.375  30.983  0.00  0.00    -0.319 OA
ATOM     17  H   UNL     1     -10.541   1.194  31.458  0.00  0.00    +0.221 HD
ENDBRANCH   1  16
BRANCH   1  18
ATOM     18  O   UNL     1      -8.520   0.822  28.554  0.00  0.00    -0.319 OA
ATOM     19  H   UNL     1      -8.362   1.767  28.405  0.00  0.00    +0.221 HD
ENDBRANCH   1  18
BRANCH   1  20
ATOM     20  O   UNL     1     -10.255   1.788  30.274  0.00  0.00    -0.319 OA
ATOM     21  H   UNL     1      -9.872   2.560  30.719  0.00  0.00    +0.221 HD
ENDBRANCH   1  20
BRANCH   1  22
ATOM     22  O   UNL     1      -9.051  -0.973  29.509  0.00  0.00    -0.185 OA
BRANCH  22  23
ATOM     23  N   UNL     1     -10.282  -1.410  29.297  0.00  0.00    -0.131 N 
ATOM     24  C   UNL     1     -10.937  -1.973  30.460  0.00  0.00    +0.114 C 
ATOM     25  C   UNL     1     -12.291  -2.139  30.666  0.00  0.00    +0.158 C 
ATOM     26  N   UNL     1     -12.779  -2.656  31.794  0.00  0.00    -0.227 NA
ATOM     27  C   UNL     1     -11.946  -3.048  32.800  0.00  0.00    +0.100 C 
ATOM     28  C   UNL     1     -10.595  -2.881  32.592  0.00  0.00    +0.022 C 
ATOM     29  C   UNL     1     -10.041  -2.354  31.449  0.00  0.00    +0.022 C 
ATOM     30  N   UNL     1     -13.338  -1.794  29.725  0.00  0.00    -0.214 N 
ATOM     31  C   UNL     1     -13.256  -1.879  28.302  0.00  0.00    +0.064 C 
ATOM     32  C   UNL     1     -12.131  -1.622  27.529  0.00  0.00    +0.070 C 
ATOM     33  C   UNL     1     -12.194  -1.729  26.175  0.00  0.00    +0.006 C 
ATOM     34  C   UNL     1     -13.378  -2.096  25.573  0.00  0.00    +0.000 C 
ATOM     35  C   UNL     1     -14.470  -2.345  26.368  0.00  0.00    +0.001 C 
ATOM     36  C   UNL     1     -14.439  -2.245  27.740  0.00  0.00    +0.015 C 
ATOM     37  C   UNL     1     -10.766  -1.257  27.963  0.00  0.00    +0.277 C 
ATOM     38  O   UNL     1     -10.022  -0.789  27.074  0.00  0.00    -0.267 OA
ATOM     39  C   UNL     1     -14.546  -1.356  30.287  0.00  0.00    +0.312 C 
ATOM     40  O   UNL     1     -15.512  -0.935  29.635  0.00  0.00    -0.264 OA
ENDBRANCH  22  23
ENDBRANCH   1  22
TORSDOF 9
