REMARK  Name = =
REMARK  0 active torsions:
REMARK  status: ('A' for Active; 'I' for Inactive)
REMARK                            x       y       z     vdW  Elec       q    Type
REMARK                         _______ _______ _______ _____ _____    ______ ____
ROOT
ATOM      1  S   UNL     1     -12.964 -44.670  27.825  0.00  0.00    -0.047 S 
ATOM      2  C   UNL     1     -13.872 -43.763  26.500  0.00  0.00    +0.152 C 
ATOM      3  C   UNL     1     -13.736 -42.387  27.041  0.00  0.00    +0.240 C 
ATOM      4  O   UNL     1     -14.663 -41.517  26.893  0.00  0.00    -0.274 OA
ATOM      5  N   UNL     1     -12.530 -42.161  27.704  0.00  0.00    -0.246 N 
ATOM      6  C   UNL     1     -12.032 -43.269  28.402  0.00  0.00    +0.279 C 
ATOM      7  O   UNL     1     -11.129 -43.276  29.246  0.00  0.00    -0.263 OA
ATOM      8  H   UNL     1     -12.066 -41.293  27.683  0.00  0.00    +0.158 HD
ENDROOT
TORSDOF 0
