REMARK  Name = =
REMARK  7 active torsions:
REMARK  status: ('A' for Active; 'I' for Inactive)
REMARK    1  A    between atoms: N_1  and  C_8
REMARK    2  A    between atoms: C_3  and  O_20
REMARK    3  A    between atoms: S_7  and  N_14
REMARK    4  A    between atoms: O_20  and  C_21
REMARK    5  A    between atoms: C_22  and  C_29
REMARK    6  A    between atoms: C_24  and  C_27
REMARK    7  A    between atoms: C_30  and  C_31
REMARK                            x       y       z     vdW  Elec       q    Type
REMARK                         _______ _______ _______ _____ _____    ______ ____
ROOT
ATOM      1  N   UNL     1     -19.295 -42.084  26.028  0.00  0.00    -0.163 N 
ATOM      2  N   UNL     1     -19.368 -40.859  25.501  0.00  0.00    -0.090 NA
ATOM      3  C   UNL     1     -20.385 -40.804  24.657  0.00  0.00    +0.422 A 
ATOM      4  O   UNL     1     -20.956 -41.975  24.642  0.00  0.00    -0.358 OA
ATOM      5  C   UNL     1     -20.308 -42.772  25.471  0.00  0.00    +0.442 A 
ATOM      6  O   UNL     1     -20.605 -43.995  25.698  0.00  0.00    -0.221 OA
ENDROOT
BRANCH   1   8
ATOM      7  S   UNL     1     -16.701 -42.729  26.127  0.00  0.00    -0.081 S 
ATOM      8  C   UNL     1     -18.378 -42.609  26.970  0.00  0.00    +0.235 C 
ATOM      9  C   UNL     1     -17.954 -41.624  27.989  0.00  0.00    +0.262 C 
ATOM     10  O   UNL     1     -18.644 -40.573  28.226  0.00  0.00    -0.272 OA
ATOM     11  N   UNL     1     -16.758 -41.979  28.624  0.00  0.00    -0.245 N 
ATOM     12  C   UNL     1     -15.800 -42.518  27.727  0.00  0.00    +0.273 C 
ATOM     13  O   UNL     1     -14.617 -42.802  27.914  0.00  0.00    -0.263 OA
ATOM     14  H   UNL     1     -16.412 -43.804  25.345  0.00  0.00    +0.109 HD
ATOM     15  H   UNL     1     -16.599 -41.867  29.589  0.00  0.00    +0.158 HD
BRANCH   7  16
ATOM     16  N   UNL     1     -16.445 -41.446  25.061  0.00  0.00    -0.235 NA
ATOM     17  C   UNL     1     -16.973 -41.664  23.745  0.00  0.00    +0.099 C 
ATOM     18  C   UNL     1     -16.235 -42.729  22.979  0.00  0.00    +0.087 C 
ATOM     19  N   UNL     1     -14.912 -42.974  23.467  0.00  0.00    -0.295 NA
ATOM     20  C   UNL     1     -14.256 -41.831  24.019  0.00  0.00    +0.087 C 
ATOM     21  C   UNL     1     -15.089 -41.022  24.954  0.00  0.00    +0.099 C 
ATOM     22  H   UNL     1     -14.347 -43.321  22.692  0.00  0.00    +0.123 HD
ENDBRANCH   7  16
ENDBRANCH   1   8
BRANCH   3  23
ATOM     23  O   UNL     1     -20.768 -39.662  23.911  0.00  0.00    -0.408 OA
BRANCH  23  24
ATOM     24  C   UNL     1     -22.063 -39.593  23.393  0.00  0.00    +0.150 C 
ATOM     25  C   UNL     1     -22.395 -40.210  22.225  0.00  0.00    +0.034 C 
ATOM     26  C   UNL     1     -23.748 -40.090  21.810  0.00  0.00    +0.003 C 
ATOM     27  C   UNL     1     -24.674 -39.392  22.529  0.00  0.00    +0.000 C 
ATOM     28  C   UNL     1     -24.286 -38.778  23.704  0.00  0.00    +0.003 C 
ATOM     29  C   UNL     1     -22.978 -38.885  24.128  0.00  0.00    +0.038 C 
BRANCH  27  30
ATOM     30  C   UNL     1     -26.034 -39.330  22.012  0.00  0.00    +0.000 C 
ATOM     31  C   UNL     1     -26.961 -38.679  22.654  0.00  0.00    +0.000 C 
ENDBRANCH  27  30
BRANCH  25  32
ATOM     32  C   UNL     1     -21.499 -40.845  21.287  0.00  0.00    +0.001 C 
ATOM     33  C   UNL     1     -20.508 -40.444  20.607  0.00  0.00    +0.009 C 
BRANCH  33  34
ATOM     34  C   UNL     1     -19.838 -39.182  20.451  0.00  0.00    +0.208 C 
ATOM     35  O   UNL     1     -18.793 -39.108  19.690  0.00  0.00    -0.215 OA
ENDBRANCH  33  34
ENDBRANCH  25  32
ENDBRANCH  23  24
ENDBRANCH   3  23
TORSDOF 7
