REMARK  Name = =
REMARK  3 active torsions:
REMARK  status: ('A' for Active; 'I' for Inactive)
REMARK    1  A    between atoms: C_1  and  C_7
REMARK    2  A    between atoms: C_4  and  O_10
REMARK    3  A    between atoms: C_7  and  O_9
REMARK                            x       y       z     vdW  Elec       q    Type
REMARK                         _______ _______ _______ _____ _____    ______ ____
ROOT
ATOM      1  C   UNL     1      53.847 156.338  29.152  0.00  0.00    +0.076 C 
ATOM      2  C   UNL     1      54.521 156.388  27.945  0.00  0.00    +0.010 C 
ATOM      3  C   UNL     1      55.891 156.493  27.863  0.00  0.00    +0.037 C 
ATOM      4  C   UNL     1      56.647 156.552  29.009  0.00  0.00    +0.134 C 
ATOM      5  C   UNL     1      56.011 156.505  30.224  0.00  0.00    +0.037 C 
ATOM      6  C   UNL     1      54.638 156.400  30.287  0.00  0.00    +0.010 C 
ENDROOT
BRANCH   1   7
ATOM      7  C   UNL     1      52.402 156.228  29.203  0.00  0.00    +0.338 C 
ATOM      8  O   UNL     1      51.810 156.184  30.299  0.00  0.00    -0.245 OA
BRANCH   7   9
ATOM      9  O   UNL     1      51.684 156.172  28.035  0.00  0.00    -0.477 OA
ATOM     10  H   UNL     1      52.128 156.205  27.210  0.00  0.00    +0.295 HD
ENDBRANCH   7   9
ENDBRANCH   1   7
BRANCH   4  11
ATOM     11  O   UNL     1      58.049 156.659  28.916  0.00  0.00    -0.506 OA
ATOM     12  H   UNL     1      58.462 156.689  28.075  0.00  0.00    +0.292 HD
ENDBRANCH   4  11
TORSDOF 3
