REMARK  Name = =
REMARK  1 active torsions:
REMARK  status: ('A' for Active; 'I' for Inactive)
REMARK    1  A    between atoms: C_1  and  O_3
REMARK                            x       y       z     vdW  Elec       q    Type
REMARK                         _______ _______ _______ _____ _____    ______ ____
ROOT
ATOM      1  C   UNL     1      52.608 156.056  28.148  0.00  0.00    +0.418 C 
ATOM      2  O   UNL     1      52.835 157.173  28.668  0.00  0.00    -0.238 OA
ENDROOT
BRANCH   1   3
ATOM      3  O   UNL     1      51.466 155.384  28.507  0.00  0.00    -0.437 OA
ATOM      4  C   UNL     1      50.649 155.791  29.611  0.00  0.00    +0.256 C 
ENDBRANCH   1   3
TORSDOF 1
