REMARK  Name = =
REMARK  2 active torsions:
REMARK  status: ('A' for Active; 'I' for Inactive)
REMARK    1  A    between atoms: C_1  and  C_7
REMARK    2  A    between atoms: C_7  and  O_9
REMARK                            x       y       z     vdW  Elec       q    Type
REMARK                         _______ _______ _______ _____ _____    ______ ____
ROOT
ATOM      1  C   UNL     1      53.192 155.438  26.680  0.00  0.00    +0.099 C 
ATOM      2  C   UNL     1      53.831 156.422  25.746  0.00  0.00    +0.011 C 
ATOM      3  C   UNL     1      54.166 155.719  24.425  0.00  0.00    +0.001 C 
ATOM      4  C   UNL     1      54.443 154.262  24.715  0.00  0.00    +0.000 C 
ATOM      5  C   UNL     1      53.245 153.517  25.214  0.00  0.00    +0.001 C 
ATOM      6  C   UNL     1      52.294 154.538  25.823  0.00  0.00    +0.011 C 
ENDROOT
BRANCH   1   7
ATOM      7  C   UNL     1      52.433 156.068  27.770  0.00  0.00    +0.317 C 
ATOM      8  O   UNL     1      52.556 157.283  28.071  0.00  0.00    -0.250 OA
BRANCH   7   9
ATOM      9  O   UNL     1      51.549 155.296  28.491  0.00  0.00    -0.444 OA
ATOM     10  C   UNL     1      50.698 155.769  29.494  0.00  0.00    +0.256 C 
ENDBRANCH   7   9
ENDBRANCH   1   7
TORSDOF 2
