REMARK  Name = =
REMARK  5 active torsions:
REMARK  status: ('A' for Active; 'I' for Inactive)
REMARK    1  A    between atoms: C_1  and  C_17
REMARK    2  A    between atoms: C_1  and  O_39
REMARK    3  A    between atoms: O_39  and  C_40
REMARK    4  A    between atoms: C_40  and  C_42
REMARK    5  A    between atoms: C_45  and  O_48
REMARK                            x       y       z     vdW  Elec       q    Type
REMARK                         _______ _______ _______ _____ _____    ______ ____
ROOT
ATOM      1  C   UNL     1      52.545 156.974  28.566  0.00  0.00    +0.174 C 
ATOM      2  C   UNL     1      51.535 158.009  28.260  0.00  0.00    +0.069 C 
ATOM      3  C   UNL     1      50.691 158.490  29.361  0.00  0.00    -0.016 C 
ATOM      4  C   UNL     1      50.539 157.840  30.551  0.00  0.00    +0.031 C 
ATOM      5  C   UNL     1      49.709 158.320  31.564  0.00  0.00    +0.003 C 
ATOM      6  C   UNL     1      49.016 159.479  31.380  0.00  0.00    +0.000 C 
ATOM      7  C   UNL     1      49.150 160.162  30.183  0.00  0.00    -0.000 C 
ATOM      8  C   UNL     1      49.982 159.662  29.188  0.00  0.00    -0.004 C 
ATOM      9  C   UNL     1      48.432 161.326  30.039  0.00  0.00    -0.000 C 
ATOM     10  C   UNL     1      47.606 161.820  31.026  0.00  0.00    -0.000 C 
ATOM     11  C   UNL     1      47.486 161.132  32.205  0.00  0.00    +0.000 C 
ATOM     12  C   UNL     1      48.188 159.959  32.389  0.00  0.00    +0.000 C 
ATOM     13  C   UNL     1      51.303 156.613  30.721  0.00  0.00    +0.176 C 
ATOM     14  O   UNL     1      50.860 155.708  31.461  0.00  0.00    -0.291 OA
ATOM     15  C   UNL     1      52.583 156.528  29.983  0.00  0.00    +0.112 C 
ENDROOT
BRANCH   1  17
ATOM     16  O   UNL     1      51.225 156.187  26.859  0.00  0.00    -0.350 OA
ATOM     17  C   UNL     1      52.309 155.813  27.583  0.00  0.00    +0.178 C 
ATOM     18  C   UNL     1      52.277 154.463  28.174  0.00  0.00    +0.146 C 
ATOM     19  O   UNL     1      52.954 153.468  27.477  0.00  0.00    -0.349 OA
ATOM     20  C   UNL     1      52.408 153.076  26.315  0.00  0.00    +0.169 C 
ATOM     21  C   UNL     1      53.144 151.930  25.732  0.00  0.00    +0.007 C 
ATOM     22  C   UNL     1      54.056 152.015  24.701  0.00  0.00    -0.002 C 
ATOM     23  C   UNL     1      54.543 153.229  24.062  0.00  0.00    -0.002 C 
ATOM     24  C   UNL     1      55.066 154.338  24.692  0.00  0.00    +0.007 C 
ATOM     25  C   UNL     1      55.464 155.423  23.897  0.00  0.00    -0.002 C 
ATOM     26  C   UNL     1      55.364 155.437  22.539  0.00  0.00    -0.000 C 
ATOM     27  C   UNL     1      54.847 154.331  21.903  0.00  0.00    -0.000 C 
ATOM     28  C   UNL     1      54.445 153.248  22.651  0.00  0.00    -0.000 C 
ATOM     29  C   UNL     1      55.335 154.476  26.129  0.00  0.00    +0.169 C 
ATOM     30  O   UNL     1      54.363 154.851  26.957  0.00  0.00    -0.346 OA
ATOM     31  C   UNL     1      53.525 155.879  26.661  0.00  0.00    +0.175 C 
ATOM     32  C   UNL     1      54.587 150.801  24.215  0.00  0.00    -0.000 C 
ATOM     33  C   UNL     1      54.232 149.580  24.728  0.00  0.00    -0.000 C 
ATOM     34  C   UNL     1      53.331 149.498  25.752  0.00  0.00    -0.000 C 
ATOM     35  C   UNL     1      52.795 150.669  26.245  0.00  0.00    -0.002 C 
ATOM     36  C   UNL     1      50.972 153.888  28.600  0.00  0.00    +0.035 C 
ATOM     37  C   UNL     1      49.815 154.509  27.911  0.00  0.00    +0.035 C 
ATOM     38  C   UNL     1      50.150 155.384  26.751  0.00  0.00    +0.142 C 
ENDBRANCH   1  17
BRANCH   1  39
ATOM     39  O   UNL     1      53.838 157.445  28.237  0.00  0.00    -0.449 OA
BRANCH  39  40
ATOM     40  C   UNL     1      54.689 158.114  29.074  0.00  0.00    +0.341 C 
ATOM     41  O   UNL     1      55.796 157.596  29.398  0.00  0.00    -0.245 OA
BRANCH  40  42
ATOM     42  C   UNL     1      54.375 159.417  29.618  0.00  0.00    +0.076 C 
ATOM     43  C   UNL     1      55.351 160.369  29.756  0.00  0.00    +0.010 C 
ATOM     44  C   UNL     1      55.045 161.627  30.283  0.00  0.00    +0.037 C 
ATOM     45  C   UNL     1      53.754 161.901  30.663  0.00  0.00    +0.134 C 
ATOM     46  C   UNL     1      52.758 160.942  30.529  0.00  0.00    +0.037 C 
ATOM     47  C   UNL     1      53.088 159.698  30.001  0.00  0.00    +0.010 C 
BRANCH  45  48
ATOM     48  O   UNL     1      53.394 163.135  31.194  0.00  0.00    -0.506 OA
ATOM     49  H   UNL     1      54.039 163.806  31.299  0.00  0.00    +0.292 HD
ENDBRANCH  45  48
ENDBRANCH  40  42
ENDBRANCH  39  40
ENDBRANCH   1  39
TORSDOF 5
