REMARK  Name = =
REMARK  4 active torsions:
REMARK  status: ('A' for Active; 'I' for Inactive)
REMARK    1  A    between atoms: C_2  and  O_12
REMARK    2  A    between atoms: O_12  and  C_13
REMARK    3  A    between atoms: C_13  and  C_19
REMARK    4  A    between atoms: C_19  and  O_21
REMARK                            x       y       z     vdW  Elec       q    Type
REMARK                         _______ _______ _______ _____ _____    ______ ____
ROOT
ATOM      1  C   UNL     1      53.324 153.173  27.824  0.00  0.00    +0.037 C 
ATOM      2  C   UNL     1      52.455 153.395  26.741  0.00  0.00    +0.142 C 
ATOM      3  C   UNL     1      51.314 154.139  26.912  0.00  0.00    +0.074 C 
ATOM      4  C   UNL     1      50.993 154.691  28.158  0.00  0.00    +0.152 C 
ATOM      5  C   UNL     1      51.867 154.453  29.187  0.00  0.00    +0.035 C 
ATOM      6  C   UNL     1      53.008 153.715  29.044  0.00  0.00    +0.006 C 
ATOM      7  C   UNL     1      51.581 154.984  30.431  0.00  0.00    +0.010 C 
ATOM      8  C   UNL     1      50.430 155.724  30.561  0.00  0.00    +0.082 C 
ATOM      9  C   UNL     1      49.624 155.904  29.474  0.00  0.00    +0.346 C 
ATOM     10  O   UNL     1      48.571 156.600  29.660  0.00  0.00    -0.244 OA
ATOM     11  O   UNL     1      49.896 155.404  28.307  0.00  0.00    -0.421 OA
ENDROOT
BRANCH   2  12
ATOM     12  O   UNL     1      52.758 152.860  25.530  0.00  0.00    -0.472 OA
BRANCH  12  13
ATOM     13  C   UNL     1      53.939 152.426  24.959  0.00  0.00    +0.221 C 
ATOM     14  C   UNL     1      55.016 153.399  25.418  0.00  0.00    +0.051 C 
ATOM     15  C   UNL     1      56.002 153.741  24.326  0.00  0.00    +0.004 C 
ATOM     16  C   UNL     1      55.328 154.432  23.159  0.00  0.00    +0.000 C 
ATOM     17  C   UNL     1      54.004 153.788  22.826  0.00  0.00    +0.004 C 
ATOM     18  C   UNL     1      53.857 152.425  23.431  0.00  0.00    +0.051 C 
BRANCH  13  19
ATOM     19  C   UNL     1      54.264 151.043  25.314  0.00  0.00    +0.354 C 
ATOM     20  O   UNL     1      55.488 150.861  25.667  0.00  0.00    -0.246 OA
BRANCH  19  21
ATOM     21  O   UNL     1      53.488 149.929  25.331  0.00  0.00    -0.442 OA
ATOM     22  C   UNL     1      53.776 148.724  24.671  0.00  0.00    +0.256 C 
ENDBRANCH  19  21
ENDBRANCH  13  19
ENDBRANCH  12  13
ENDBRANCH   2  12
TORSDOF 4
