REMARK  Name = =
REMARK  5 active torsions:
REMARK  status: ('A' for Active; 'I' for Inactive)
REMARK    1  A    between atoms: C_1  and  S_19
REMARK    2  A    between atoms: S_19  and  C_20
REMARK    3  A    between atoms: S_19  and  C_24
REMARK    4  A    between atoms: C_20  and  N_22
REMARK    5  A    between atoms: N_22  and  O_23
REMARK                            x       y       z     vdW  Elec       q    Type
REMARK                         _______ _______ _______ _____ _____    ______ ____
ROOT
ATOM      1  C   UNL     1      51.179 158.267  30.812  0.00  0.00    +0.078 C 
ATOM      2  C   UNL     1      52.256 159.313  31.014  0.00  0.00    +0.013 C 
ATOM      3  C   UNL     1      51.918 160.721  30.687  0.00  0.00    +0.003 C 
ATOM      4  C   UNL     1      50.527 161.161  30.734  0.00  0.00    +0.022 C 
ATOM      5  C   UNL     1      49.748 160.065  31.383  0.00  0.00    +0.062 C 
ATOM      6  C   UNL     1      50.031 159.913  32.847  0.00  0.00    +0.025 C 
ATOM      7  C   UNL     1      50.710 161.084  33.477  0.00  0.00    +0.069 C 
ATOM      8  N   UNL     1      50.506 162.348  32.885  0.00  0.00    -0.298 NA
ATOM      9  C   UNL     1      50.164 162.381  31.496  0.00  0.00    +0.059 C 
ATOM     10  C   UNL     1      48.713 162.730  31.381  0.00  0.00    +0.042 C 
ATOM     11  C   UNL     1      47.814 161.569  31.177  0.00  0.00    -0.022 C 
ATOM     12  C   UNL     1      48.336 160.347  31.170  0.00  0.00    +0.011 C 
ATOM     13  C   UNL     1      47.712 159.139  30.995  0.00  0.00    +0.134 C 
ATOM     14  C   UNL     1      46.342 159.234  30.801  0.00  0.00    +0.037 C 
ATOM     15  C   UNL     1      45.717 160.497  30.797  0.00  0.00    +0.003 C 
ATOM     16  C   UNL     1      46.450 161.669  30.985  0.00  0.00    -0.004 C 
ATOM     17  O   UNL     1      48.701 158.132  31.066  0.00  0.00    -0.478 OA
ATOM     18  C   UNL     1      49.849 158.797  30.574  0.00  0.00    +0.178 C 
ATOM     19  H   UNL     1      51.368 162.882  33.000  0.00  0.00    +0.123 HD
ENDROOT
BRANCH   1  20
ATOM     20  S   UNL     1      51.615 157.193  29.534  0.00  0.00    -0.159 S 
ATOM     21  H   UNL     1      52.834 156.675  29.842  0.00  0.00    +0.095 HD
BRANCH  20  22
ATOM     22  C   UNL     1      50.868 155.770  29.528  0.00  0.00    +0.115 C 
ATOM     23  S   UNL     1      51.676 154.344  29.802  0.00  0.00    -0.028 S 
BRANCH  22  24
ATOM     24  N   UNL     1      49.474 155.607  29.296  0.00  0.00    -0.217 N 
ATOM     25  H   UNL     1      49.080 154.712  29.181  0.00  0.00    +0.180 HD
BRANCH  24  26
ATOM     26  O   UNL     1      48.710 156.716  29.238  0.00  0.00    -0.297 OA
ATOM     27  H   UNL     1      49.266 157.499  29.372  0.00  0.00    +0.241 HD
ENDBRANCH  24  26
ENDBRANCH  22  24
ENDBRANCH  20  22
BRANCH  20  28
ATOM     28  C   UNL     1      52.057 157.926  28.156  0.00  0.00    +0.058 C 
ATOM     29  S   UNL     1      52.903 157.271  27.169  0.00  0.00    -0.044 S 
ENDBRANCH  20  28
ENDBRANCH   1  20
TORSDOF 5
