REMARK  Name = =
REMARK  5 active torsions:
REMARK  status: ('A' for Active; 'I' for Inactive)
REMARK    1  A    between atoms: C_1  and  C_13
REMARK    2  A    between atoms: C_2  and  O_19
REMARK    3  A    between atoms: O_19  and  C_20
REMARK    4  A    between atoms: C_20  and  C_26
REMARK    5  A    between atoms: C_26  and  O_28
REMARK                            x       y       z     vdW  Elec       q    Type
REMARK                         _______ _______ _______ _____ _____    ______ ____
ROOT
ATOM      1  C   UNL     1      52.203 153.801  27.531  0.00  0.00    +0.037 C 
ATOM      2  C   UNL     1      52.686 154.651  26.596  0.00  0.00    +0.142 C 
ATOM      3  C   UNL     1      52.630 156.032  26.832  0.00  0.00    +0.074 C 
ATOM      4  C   UNL     1      52.105 156.574  27.986  0.00  0.00    +0.152 C 
ATOM      5  C   UNL     1      51.626 155.700  28.918  0.00  0.00    +0.035 C 
ATOM      6  C   UNL     1      51.672 154.366  28.702  0.00  0.00    +0.006 C 
ATOM      7  C   UNL     1      51.084 156.207  30.106  0.00  0.00    +0.010 C 
ATOM      8  C   UNL     1      51.069 157.566  30.254  0.00  0.00    +0.082 C 
ATOM      9  C   UNL     1      51.572 158.374  29.265  0.00  0.00    +0.346 C 
ATOM     10  O   UNL     1      51.530 159.634  29.465  0.00  0.00    -0.244 OA
ATOM     11  O   UNL     1      52.076 157.888  28.162  0.00  0.00    -0.421 OA
ENDROOT
BRANCH   1  13
ATOM     12  C   UNL     1      51.643 151.621  28.417  0.00  0.00    -0.018 C 
ATOM     13  C   UNL     1      52.040 152.348  27.382  0.00  0.00    +0.038 C 
ATOM     14  C   UNL     1      52.194 151.637  26.138  0.00  0.00    +0.195 C 
ATOM     15  O   UNL     1      52.555 152.187  25.073  0.00  0.00    -0.287 OA
ATOM     16  C   UNL     1      51.926 150.180  26.032  0.00  0.00    +0.038 C 
ATOM     17  C   UNL     1      51.540 149.538  27.090  0.00  0.00    -0.018 C 
ATOM     18  C   UNL     1      51.353 150.177  28.387  0.00  0.00    +0.052 C 
ENDBRANCH   1  13
BRANCH   2  19
ATOM     19  O   UNL     1      53.242 154.266  25.433  0.00  0.00    -0.472 OA
BRANCH  19  20
ATOM     20  C   UNL     1      54.539 154.094  25.014  0.00  0.00    +0.221 C 
ATOM     21  C   UNL     1      54.470 153.713  23.529  0.00  0.00    +0.051 C 
ATOM     22  C   UNL     1      55.563 154.341  22.722  0.00  0.00    +0.004 C 
ATOM     23  C   UNL     1      55.429 155.849  22.705  0.00  0.00    +0.000 C 
ATOM     24  C   UNL     1      55.009 156.376  24.065  0.00  0.00    +0.004 C 
ATOM     25  C   UNL     1      55.317 155.401  25.157  0.00  0.00    +0.051 C 
BRANCH  20  26
ATOM     26  C   UNL     1      55.370 153.072  25.654  0.00  0.00    +0.354 C 
ATOM     27  O   UNL     1      55.051 152.135  26.381  0.00  0.00    -0.246 OA
BRANCH  26  28
ATOM     28  O   UNL     1      56.758 153.194  25.383  0.00  0.00    -0.442 OA
ATOM     29  C   UNL     1      57.718 152.453  26.063  0.00  0.00    +0.256 C 
ENDBRANCH  26  28
ENDBRANCH  20  26
ENDBRANCH  19  20
ENDBRANCH   2  19
TORSDOF 5
