REMARK  Name = =
REMARK  7 active torsions:
REMARK  status: ('A' for Active; 'I' for Inactive)
REMARK    1  A    between atoms: C_1  and  S_19
REMARK    2  A    between atoms: S_19  and  C_20
REMARK    3  A    between atoms: S_19  and  C_24
REMARK    4  A    between atoms: C_20  and  N_22
REMARK    5  A    between atoms: N_22  and  O_23
REMARK    6  A    between atoms: C_24  and  N_26
REMARK    7  A    between atoms: N_26  and  S_27
REMARK                            x       y       z     vdW  Elec       q    Type
REMARK                         _______ _______ _______ _____ _____    ______ ____
ROOT
ATOM      1  C   UNL     1      51.402 159.111  30.323  0.00  0.00    +0.079 C 
ATOM      2  C   UNL     1      50.844 160.284  29.550  0.00  0.00    +0.013 C 
ATOM      3  C   UNL     1      51.059 161.554  30.337  0.00  0.00    +0.003 C 
ATOM      4  C   UNL     1      50.719 161.356  31.782  0.00  0.00    +0.022 C 
ATOM      5  C   UNL     1      49.967 160.104  32.063  0.00  0.00    +0.062 C 
ATOM      6  C   UNL     1      49.768 160.023  33.566  0.00  0.00    +0.025 C 
ATOM      7  C   UNL     1      50.617 161.114  34.209  0.00  0.00    +0.069 C 
ATOM      8  N   UNL     1      50.170 162.440  33.816  0.00  0.00    -0.298 NA
ATOM      9  C   UNL     1      49.955 162.512  32.361  0.00  0.00    +0.059 C 
ATOM     10  C   UNL     1      48.498 162.550  32.127  0.00  0.00    +0.042 C 
ATOM     11  C   UNL     1      47.936 161.348  31.457  0.00  0.00    -0.022 C 
ATOM     12  C   UNL     1      48.650 160.209  31.430  0.00  0.00    +0.011 C 
ATOM     13  C   UNL     1      48.271 159.051  30.846  0.00  0.00    +0.134 C 
ATOM     14  C   UNL     1      47.043 159.032  30.224  0.00  0.00    +0.037 C 
ATOM     15  C   UNL     1      46.259 160.165  30.216  0.00  0.00    +0.003 C 
ATOM     16  C   UNL     1      46.699 161.340  30.835  0.00  0.00    -0.004 C 
ATOM     17  O   UNL     1      49.314 158.113  31.045  0.00  0.00    -0.478 OA
ATOM     18  C   UNL     1      50.492 158.838  31.484  0.00  0.00    +0.178 C 
ATOM     19  H   UNL     1      50.878 163.124  34.083  0.00  0.00    +0.123 HD
ENDROOT
BRANCH   1  20
ATOM     20  S   UNL     1      51.707 157.823  29.312  0.00  0.00    -0.146 S 
ATOM     21  H   UNL     1      50.899 157.995  28.232  0.00  0.00    +0.096 HD
BRANCH  20  22
ATOM     22  C   UNL     1      51.067 156.370  29.689  0.00  0.00    +0.116 C 
ATOM     23  S   UNL     1      49.471 156.047  29.309  0.00  0.00    -0.027 S 
BRANCH  22  24
ATOM     24  N   UNL     1      51.723 155.300  30.333  0.00  0.00    -0.217 N 
ATOM     25  H   UNL     1      52.614 155.448  30.725  0.00  0.00    +0.180 HD
BRANCH  24  26
ATOM     26  O   UNL     1      51.160 154.082  30.424  0.00  0.00    -0.297 OA
ATOM     27  H   UNL     1      50.291 154.095  29.994  0.00  0.00    +0.241 HD
ENDBRANCH  24  26
ENDBRANCH  22  24
ENDBRANCH  20  22
BRANCH  20  28
ATOM     28  C   UNL     1      53.266 157.892  28.705  0.00  0.00    +0.112 C 
ATOM     29  S   UNL     1      53.599 157.257  27.198  0.00  0.00    -0.028 S 
BRANCH  28  30
ATOM     30  N   UNL     1      54.350 158.485  29.419  0.00  0.00    -0.211 N 
ATOM     31  H   UNL     1      54.257 158.678  30.380  0.00  0.00    +0.174 HD
BRANCH  30  32
ATOM     32  S   UNL     1      55.829 158.867  28.602  0.00  0.00    +0.034 S 
ATOM     33  O   UNL     1      55.589 158.671  27.116  0.00  0.00    -0.158 OA
ATOM     34  O   UNL     1      56.219 160.274  28.897  0.00  0.00    -0.158 OA
ATOM     35  H   UNL     1      56.843 158.063  29.020  0.00  0.00    +0.233 HD
ENDBRANCH  30  32
ENDBRANCH  28  30
ENDBRANCH  20  28
ENDBRANCH   1  20
TORSDOF 7
