REMARK  Name = =
REMARK  7 active torsions:
REMARK  status: ('A' for Active; 'I' for Inactive)
REMARK    1  A    between atoms: C_1  and  O_37
REMARK    2  A    between atoms: N_3  and  C_4
REMARK    3  A    between atoms: C_7  and  C_14
REMARK    4  A    between atoms: C_17  and  O_30
REMARK    5  A    between atoms: C_19  and  N_20
REMARK    6  A    between atoms: O_30  and  C_31
REMARK    7  A    between atoms: O_37  and  C_43
REMARK                            x       y       z     vdW  Elec       q    Type
REMARK                         _______ _______ _______ _____ _____    ______ ____
ROOT
ATOM      1  C   UNL     1     -18.163 -41.829  24.745  0.00  0.00    +0.154 C 
ATOM      2  C   UNL     1     -19.170 -41.327  25.546  0.00  0.00    +0.113 C 
ATOM      3  C   UNL     1     -20.459 -41.110  25.034  0.00  0.00    +0.022 C 
ATOM      4  C   UNL     1     -20.756 -41.394  23.712  0.00  0.00    +0.022 C 
ATOM      5  C   UNL     1     -19.697 -41.897  22.953  0.00  0.00    +0.100 C 
ATOM      6  N   UNL     1     -18.468 -42.096  23.469  0.00  0.00    -0.227 NA
ATOM      7  C   UNL     1     -21.435 -40.596  25.855  0.00  0.00    +0.003 C 
ATOM      8  C   UNL     1     -21.116 -40.307  27.181  0.00  0.00    +0.021 C 
ATOM      9  C   UNL     1     -19.833 -40.545  27.620  0.00  0.00    +0.099 C 
ATOM     10  N   UNL     1     -18.876 -41.044  26.825  0.00  0.00    -0.241 NA
ENDROOT
BRANCH   4  11
ATOM     11  C   UNL     1     -22.086 -41.249  23.154  0.00  0.00    +0.018 C 
ATOM     12  C   UNL     1     -22.443 -40.102  22.423  0.00  0.00    +0.005 C 
ATOM     13  C   UNL     1     -23.739 -39.974  21.944  0.00  0.00    +0.038 C 
ATOM     14  C   UNL     1     -24.701 -40.937  22.157  0.00  0.00    +0.147 C 
ATOM     15  C   UNL     1     -24.322 -42.050  22.877  0.00  0.00    +0.055 C 
ATOM     16  C   UNL     1     -23.026 -42.211  23.374  0.00  0.00    +0.071 C 
BRANCH  16  17
ATOM     17  N   UNL     1     -22.703 -43.389  24.089  0.00  0.00    -0.259 N 
ATOM     18  C   UNL     1     -22.521 -44.634  23.625  0.00  0.00    +0.084 A 
ATOM     19  C   UNL     1     -22.239 -45.427  24.721  0.00  0.00    +0.076 A 
ATOM     20  C   UNL     1     -21.999 -46.788  24.587  0.00  0.00    +0.019 C 
ATOM     21  C   UNL     1     -22.055 -47.320  23.291  0.00  0.00    +0.002 C 
ATOM     22  C   UNL     1     -22.336 -46.515  22.222  0.00  0.00    +0.002 C 
ATOM     23  C   UNL     1     -22.571 -45.165  22.375  0.00  0.00    +0.019 C 
ATOM     24  N   UNL     1     -22.252 -44.670  25.830  0.00  0.00    -0.305 N 
ATOM     25  C   UNL     1     -22.536 -43.425  25.435  0.00  0.00    +0.332 A 
ATOM     26  O   UNL     1     -22.632 -42.429  26.223  0.00  0.00    -0.246 OA
ATOM     27  H   UNL     1     -22.085 -44.972  26.752  0.00  0.00    +0.170 HD
ENDBRANCH  16  17
BRANCH  14  28
ATOM     28  O   UNL     1     -25.980 -40.776  21.665  0.00  0.00    -0.453 OA
BRANCH  28  29
ATOM     29  C   UNL     1     -26.478 -39.651  21.063  0.00  0.00    +0.145 C 
ATOM     30  C   UNL     1     -27.062 -38.656  21.821  0.00  0.00    +0.037 C 
ATOM     31  C   UNL     1     -27.582 -37.502  21.273  0.00  0.00    +0.003 C 
ATOM     32  C   UNL     1     -27.507 -37.347  19.892  0.00  0.00    +0.000 C 
ATOM     33  C   UNL     1     -26.915 -38.355  19.134  0.00  0.00    +0.003 C 
ATOM     34  C   UNL     1     -26.401 -39.501  19.700  0.00  0.00    +0.037 C 
ENDBRANCH  28  29
ENDBRANCH  14  28
ENDBRANCH   4  11
BRANCH   1  37
ATOM     35  C   UNL     1     -15.847 -42.577  24.386  0.00  0.00    +0.411 C 
ATOM     36  O   UNL     1     -16.130 -42.818  23.200  0.00  0.00    -0.226 OA
ATOM     37  N   UNL     1     -16.847 -42.061  25.255  0.00  0.00    -0.233 N 
ATOM     38  H   UNL     1     -16.636 -41.866  26.197  0.00  0.00    +0.160 HD
BRANCH  35  39
ATOM     39  O   UNL     1     -14.560 -42.812  24.858  0.00  0.00    -0.408 OA
BRANCH  39  45
ATOM     40  N   UNL     1     -15.322 -43.306  29.376  0.00  0.00    -0.243 NA
ATOM     41  C   UNL     1     -14.640 -43.799  28.408  0.00  0.00    +0.098 C 
ATOM     42  C   UNL     1     -14.917 -43.122  27.234  0.00  0.00    +0.130 C 
ATOM     43  N   UNL     1     -15.779 -42.194  27.454  0.00  0.00    -0.240 NA
ATOM     44  C   UNL     1     -16.114 -42.229  28.846  0.00  0.00    +0.251 C 
ATOM     45  C   UNL     1     -14.307 -43.465  26.042  0.00  0.00    +0.169 C 
ATOM     46  C   UNL     1     -13.412 -44.505  26.060  0.00  0.00    +0.039 C 
ATOM     47  C   UNL     1     -13.128 -45.194  27.244  0.00  0.00    +0.005 C 
ATOM     48  C   UNL     1     -13.743 -44.835  28.407  0.00  0.00    +0.020 C 
ENDBRANCH  39  45
ENDBRANCH  35  39
ENDBRANCH   1  37
TORSDOF 7
REMARK  Name = =
REMARK  7 active torsions:
REMARK  status: ('A' for Active; 'I' for Inactive)
REMARK    1  A    between atoms: C_1  and  O_37
REMARK    2  A    between atoms: N_3  and  C_4
REMARK    3  A    between atoms: C_7  and  C_14
REMARK    4  A    between atoms: C_17  and  O_30
REMARK    5  A    between atoms: C_19  and  N_20
REMARK    6  A    between atoms: O_30  and  C_31
REMARK    7  A    between atoms: O_37  and  C_43
REMARK                            x       y       z     vdW  Elec       q    Type
REMARK                         _______ _______ _______ _____ _____    ______ ____
ROOT
ATOM      1  H   UNK     1      -5.156 -42.223  33.298  0.00  0.00    +0.000 HD
ENDROOT
TORSDOF 0
