# Name:          No_7_77
# Creation time: Wed Mar 20 11:48:25 2024


@<TRIPOS>MOLECULE
000001_000001
   46    48     1     1     1
SMALL
USER_CHARGES


@<TRIPOS>ATOM
      1 C30        -7.8780   -2.2990   32.2090 C.2        1 <1>        0.060
      2 O32        -7.9100   -2.7650   31.0800 O.2        1 <1>        0.520
      3 N4         -8.9360   -2.3980   33.0750 N.am       1 <1>        0.500
      4 H          -8.8660   -2.0071   33.9928 H          1 <1>        0.000
      5 N          -5.7470    0.7090   32.7950 N.am       1 <1>        0.510
      6 C          -6.7550   -0.0940   32.3890 C.2        1 <1>        0.050
      7 O          -7.7090    0.3250   31.7520 O.2        1 <1>        0.060
      8 C4         -6.6870   -1.5580   32.7430 C.3        1 <1>        0.050
      9 H1         -4.9757    0.3438   33.3162 H          1 <1>        0.000
     10 H2         -5.7670    1.6841   32.5742 H          1 <1>        0.000
     11 H5         -6.6610   -1.6740   33.8366 H          1 <1>        0.000
     12 N1         -4.8370   -3.2150   32.7880 N.ar       1 <1>        0.090
     13 C1         -5.4240   -2.1720   32.1480 C.ar       1 <1>        0.050
     14 N2         -4.9250   -1.6590   30.9990 N.ar       1 <1>        0.530
     15 C2         -3.8090   -2.2190   30.4970 C.ar       1 <1>        0.080
     16 C3         -3.1940   -3.2840   31.1380 C.ar       1 <1>        0.090
     17 C4         -3.7150   -3.8070   32.3190 C.ar       1 <1>        0.090
     18 N3         -2.1060   -3.6360   30.4150 N.am       1 <1>        0.070
     19 C5         -2.0680   -2.8250   29.3940 C.2        1 <1>        0.080
     20 N4         -3.0360   -2.0040   29.4210 N.2        1 <1>        0.070
     21 H2         -3.2490   -4.6399   32.8330 H          1 <1>        0.000
     22 H4         -1.3091   -2.8420   28.6131 H          1 <1>        0.000
     23 C1        -11.3450   -2.4460   33.3950 C.3        1 <1>        0.130
     24 C2        -10.1560   -3.0670   32.6670 C.3        1 <1>        0.020
     25 H3        -11.4110   -1.3773   33.1431 H          1 <1>        0.000
     26 H4        -12.2701   -2.9540   33.0850 H          1 <1>        0.000
     27 H6        -10.0900   -4.1357   32.9189 H          1 <1>        0.000
     28 H8        -10.2910   -2.9540   31.5812 H          1 <1>        0.000
     29 C1        -11.1560   -2.6040   34.9150 C.3        1 <1>        0.070
     30 H2        -10.3599   -1.9269   35.2581 H          1 <1>        0.000
     31 O3        -12.3780   -2.2820   35.5830 O.3        1 <1>        0.530
     32 H4        -10.8762   -3.6431   35.1428 H          1 <1>        0.000
     33 H6        -13.0710   -2.8630   35.2920 H          1 <1>        0.000
     34 C1         -1.2370   -4.6250   30.6950 C.2        1 <1>        0.020
     35 C2         -1.6890   -5.8220   31.4960 C.ar       1 <1>        0.130
     36 C3         -3.0120   -6.2640   31.4080 C.ar       1 <1>        0.180
     37 C4         -3.4310   -7.3720   32.1500 C.ar       1 <1>        0.200
     38 C5         -2.5250   -8.0390   32.9810 C.ar       1 <1>        0.200
     39 C6         -1.2020   -7.5970   33.0700 C.ar       1 <1>        0.190
     40 C7         -0.7840   -6.4880   32.3280 C.ar       1 <1>        0.150
     41 O8         -0.0850   -4.5540   30.3010 O.2        1 <1>        0.050
     42 H2         -3.7137   -5.7472   30.7633 H          1 <1>        0.000
     43 H3         -4.4570   -7.7150   32.0810 H          1 <1>        0.000
     44 H4         -2.8491   -8.8982   33.5571 H          1 <1>        0.000
     45 H5         -0.4999   -8.1140   33.7141 H          1 <1>        0.000
     46 H6          0.2423   -6.1459   32.3960 H          1 <1>        0.000
@<TRIPOS>BOND
     1    2    1 2  
     2    1    3 am 
     3    3    4 1  
     4    5    6 am 
     5    6    7 2  
     6    6    8 1  
     7    5    9 1  
     8    5   10 1  
     9    8   11 1  
    10    1    8 1  
    11   12   13 ar 
    12   12   17 ar 
    13   13   14 ar 
    14   14   15 ar 
    15   15   16 ar 
    16   15   20 1  
    17   16   17 ar 
    18   16   18 1  
    19   18   19 1  
    20   19   20 2  
    21   17   21 1  
    22   19   22 1  
    23    8   13 1  
    24   24   23 1  
    25   23   25 1  
    26   23   26 1  
    27   24   27 1  
    28   24   28 1  
    29    3   24 1  
    30   29   30 1  
    31   29   31 1  
    32   29   32 1  
    33   31   33 1  
    34   23   29 1  
    35   34   35 1  
    36   35   36 ar 
    37   35   40 ar 
    38   40   39 ar 
    39   39   38 ar 
    40   38   37 ar 
    41   37   36 ar 
    42   34   41 2  
    43   36   42 1  
    44   37   43 1  
    45   38   44 1  
    46   39   45 1  
    47   40   46 1  
    48   18   34 am 
# Name:          No_6_5
# Creation time: Wed Mar 20 11:48:25 2024


@<TRIPOS>MOLECULE
000002_000001
   43    44     1     1     1
SMALL
USER_CHARGES


@<TRIPOS>ATOM
      1 C30        -7.8780   -2.2990   32.2090 C.2        1 <1>        0.060
      2 O32        -7.9100   -2.7650   31.0800 O.2        1 <1>        0.520
      3 N4         -8.9360   -2.3980   33.0750 N.am       1 <1>        0.500
      4 H          -8.8660   -2.0071   33.9928 H          1 <1>        0.000
      5 N          -5.7470    0.7090   32.7950 N.am       1 <1>        0.510
      6 C          -6.7550   -0.0940   32.3890 C.2        1 <1>        0.050
      7 O          -7.7090    0.3250   31.7520 O.2        1 <1>        0.060
      8 C4         -6.6870   -1.5580   32.7430 C.3        1 <1>        0.050
      9 H1         -4.9757    0.3438   33.3162 H          1 <1>        0.000
     10 H2         -5.7670    1.6841   32.5742 H          1 <1>        0.000
     11 H5         -6.6610   -1.6740   33.8366 H          1 <1>        0.000
     12 N1         -4.7500   -1.4880   31.1890 N.ar       1 <1>        0.480
     13 C1         -5.4240   -2.1720   32.1480 C.ar       1 <1>        0.050
     14 N2         -5.0110   -3.3820   32.5940 N.ar       1 <1>        0.090
     15 C2         -3.8950   -3.9010   32.0510 C.ar       1 <1>        0.090
     16 C3         -3.1940   -3.2170   31.0690 C.ar       1 <1>        0.090
     17 C4         -3.6240   -1.9720   30.6170 C.ar       1 <1>       -0.010
     18 N3         -2.1280   -3.9700   30.7130 N.pl3      1 <1>        0.250
     19 C5         -2.1840   -5.0500   31.4430 C.2        1 <1>       -0.010
     20 N4         -3.1900   -5.0310   32.2170 N.2        1 <1>        0.060
     21 H3         -1.4151   -3.7370   30.0071 H          1 <1>        0.000
     22 H4         -1.4672   -5.8688   31.4010 H          1 <1>        0.000
     23 C1        -12.4780   -2.7250   31.6420 C.3        1 <1>        0.120
     24 C2        -11.1610   -2.0380   32.0880 C.3        1 <1>        0.110
     25 C3        -10.1560   -3.0670   32.6670 C.3        1 <1>        0.020
     26 H1        -13.1745   -1.9775   31.2343 H          1 <1>        0.000
     27 H3        -12.2750   -3.4748   30.8632 H          1 <1>        0.000
     28 H4        -11.3871   -1.2798   32.8522 H          1 <1>        0.000
     29 H5        -10.7050   -1.5309   31.2249 H          1 <1>        0.000
     30 H7         -9.9041   -3.8247   31.9103 H          1 <1>        0.000
     31 H8        -10.5880   -3.5730   33.5430 H          1 <1>        0.000
     32 C1         -2.8720   -1.1980   29.5400 C.3        1 <1>        0.000
     33 H2         -3.2619   -1.4749   28.5494 H          1 <1>        0.000
     34 O3         -3.0520    0.2050   29.7470 O.3        1 <1>        0.550
     35 H4         -1.8007   -1.4421   29.5930 H          1 <1>        0.000
     36 H6         -2.7171    0.4529   30.6007 H          1 <1>        0.000
     37 C1        -13.5360   -2.3800   33.8840 C.3        1 <1>        0.270
     38 C2        -13.1510   -3.4230   32.8380 C.3        1 <1>        0.180
     39 H3        -14.2360   -1.6570   33.4400 H          1 <1>        0.000
     40 H4        -14.0171   -2.8791   34.7381 H          1 <1>        0.000
     41 H5        -12.6329   -1.8539   34.2270 H          1 <1>        0.000
     42 H6        -12.4516   -4.1465   33.2823 H          1 <1>        0.000
     43 H8        -14.0541   -3.9491   32.4950 H          1 <1>        0.000
@<TRIPOS>BOND
     1    2    1 2  
     2    1    3 am 
     3    3    4 1  
     4    5    6 am 
     5    6    7 2  
     6    6    8 1  
     7    5    9 1  
     8    5   10 1  
     9    8   11 1  
    10    1    8 1  
    11   12   13 ar 
    12   12   17 ar 
    13   13   14 ar 
    14   14   15 ar 
    15   15   16 ar 
    16   15   20 1  
    17   16   17 ar 
    18   16   18 1  
    19   18   19 1  
    20   19   20 2  
    21   18   21 1  
    22   19   22 1  
    23    8   13 1  
    24   24   23 1  
    25   24   25 1  
    26   23   26 1  
    27   23   27 1  
    28   24   28 1  
    29   24   29 1  
    30   25   30 1  
    31   25   31 1  
    32    3   25 1  
    33   32   33 1  
    34   32   34 1  
    35   32   35 1  
    36   34   36 1  
    37   17   32 1  
    38   38   37 1  
    39   37   39 1  
    40   37   40 1  
    41   37   41 1  
    42   38   42 1  
    43   38   43 1  
    44   23   38 1  
# Name:          No_7_4
# Creation time: Wed Mar 20 11:48:25 2024


@<TRIPOS>MOLECULE
000002_000002
   43    44     1     1     1
SMALL
USER_CHARGES


@<TRIPOS>ATOM
      1 C30        -7.8780   -2.2990   32.2090 C.2        1 <1>        0.060
      2 O32        -7.9100   -2.7650   31.0800 O.2        1 <1>        0.520
      3 N4         -8.9360   -2.3980   33.0750 N.am       1 <1>        0.500
      4 H          -8.8660   -2.0071   33.9928 H          1 <1>        0.000
      5 N          -5.7470    0.7090   32.7950 N.am       1 <1>        0.510
      6 C          -6.7550   -0.0940   32.3890 C.2        1 <1>        0.050
      7 O          -7.7090    0.3250   31.7520 O.2        1 <1>        0.060
      8 C4         -6.6870   -1.5580   32.7430 C.3        1 <1>        0.050
      9 H1         -4.9757    0.3438   33.3162 H          1 <1>        0.000
     10 H2         -5.7670    1.6841   32.5742 H          1 <1>        0.000
     11 H5         -6.6610   -1.6740   33.8366 H          1 <1>        0.000
     12 N1         -4.7500   -1.4880   31.1890 N.ar       1 <1>        0.480
     13 C1         -5.4240   -2.1720   32.1480 C.ar       1 <1>        0.050
     14 N2         -5.0110   -3.3820   32.5940 N.ar       1 <1>        0.090
     15 C2         -3.8950   -3.9010   32.0510 C.ar       1 <1>        0.090
     16 C3         -3.1940   -3.2170   31.0690 C.ar       1 <1>        0.090
     17 C4         -3.6240   -1.9720   30.6170 C.ar       1 <1>       -0.010
     18 N3         -2.1280   -3.9700   30.7130 N.pl3      1 <1>        0.250
     19 C5         -2.1840   -5.0500   31.4430 C.2        1 <1>       -0.010
     20 N4         -3.1900   -5.0310   32.2170 N.2        1 <1>        0.060
     21 H3         -1.4151   -3.7370   30.0071 H          1 <1>        0.000
     22 H4         -1.4672   -5.8688   31.4010 H          1 <1>        0.000
     23 C1        -12.4780   -2.7250   31.6420 C.3        1 <1>        0.120
     24 C2        -11.1610   -2.0380   32.0880 C.3        1 <1>        0.110
     25 C3        -10.1560   -3.0670   32.6670 C.3        1 <1>        0.020
     26 H1        -13.1745   -1.9775   31.2343 H          1 <1>        0.000
     27 H3        -12.2750   -3.4748   30.8632 H          1 <1>        0.000
     28 H4        -11.3871   -1.2798   32.8522 H          1 <1>        0.000
     29 H5        -10.7050   -1.5309   31.2249 H          1 <1>        0.000
     30 H7         -9.9041   -3.8247   31.9103 H          1 <1>        0.000
     31 H8        -10.5880   -3.5730   33.5430 H          1 <1>        0.000
     32 C1         -2.8720   -1.1980   29.5400 C.3        1 <1>        0.000
     33 H2         -3.2619   -1.4749   28.5494 H          1 <1>        0.000
     34 O3         -3.0520    0.2050   29.7470 O.3        1 <1>        0.550
     35 H4         -1.8007   -1.4421   29.5930 H          1 <1>        0.000
     36 H6         -2.7171    0.4529   30.6007 H          1 <1>        0.000
     37 C1        -13.5360   -2.3800   33.8840 C.3        1 <1>        0.270
     38 C2        -13.1510   -3.4230   32.8380 C.3        1 <1>        0.180
     39 H3        -14.2360   -1.6570   33.4400 H          1 <1>        0.000
     40 H4        -14.0171   -2.8791   34.7381 H          1 <1>        0.000
     41 H5        -12.6329   -1.8539   34.2270 H          1 <1>        0.000
     42 H6        -12.4516   -4.1465   33.2823 H          1 <1>        0.000
     43 H8        -14.0541   -3.9491   32.4950 H          1 <1>        0.000
@<TRIPOS>BOND
     1    2    1 2  
     2    1    3 am 
     3    3    4 1  
     4    5    6 am 
     5    6    7 2  
     6    6    8 1  
     7    5    9 1  
     8    5   10 1  
     9    8   11 1  
    10    1    8 1  
    11   12   13 ar 
    12   12   17 ar 
    13   13   14 ar 
    14   14   15 ar 
    15   15   16 ar 
    16   15   20 1  
    17   16   17 ar 
    18   16   18 1  
    19   18   19 1  
    20   19   20 2  
    21   18   21 1  
    22   19   22 1  
    23    8   13 1  
    24   24   23 1  
    25   24   25 1  
    26   23   26 1  
    27   23   27 1  
    28   24   28 1  
    29   24   29 1  
    30   25   30 1  
    31   25   31 1  
    32    3   25 1  
    33   32   33 1  
    34   32   34 1  
    35   32   35 1  
    36   34   36 1  
    37   17   32 1  
    38   38   37 1  
    39   37   39 1  
    40   37   40 1  
    41   37   41 1  
    42   38   42 1  
    43   38   43 1  
    44   23   38 1  
# Name:          No_5_50
# Creation time: Wed Mar 20 11:48:25 2024


@<TRIPOS>MOLECULE
000002_000003
   43    44     1     1     1
SMALL
USER_CHARGES


@<TRIPOS>ATOM
      1 C30        -7.8780   -2.2990   32.2090 C.2        1 <1>        0.060
      2 O32        -7.9100   -2.7650   31.0800 O.2        1 <1>        0.520
      3 N4         -8.9360   -2.3980   33.0750 N.am       1 <1>        0.500
      4 H          -8.8660   -2.0071   33.9928 H          1 <1>        0.000
      5 N          -5.7470    0.7090   32.7950 N.am       1 <1>        0.510
      6 C          -6.7550   -0.0940   32.3890 C.2        1 <1>        0.050
      7 O          -7.7090    0.3250   31.7520 O.2        1 <1>        0.060
      8 C4         -6.6870   -1.5580   32.7430 C.3        1 <1>        0.050
      9 H1         -4.9757    0.3438   33.3162 H          1 <1>        0.000
     10 H2         -5.7670    1.6841   32.5742 H          1 <1>        0.000
     11 H5         -6.6610   -1.6740   33.8366 H          1 <1>        0.000
     12 N1         -4.7500   -1.4880   31.1890 N.ar       1 <1>        0.480
     13 C1         -5.4240   -2.1720   32.1480 C.ar       1 <1>        0.050
     14 N2         -5.0110   -3.3820   32.5940 N.ar       1 <1>        0.090
     15 C2         -3.8950   -3.9010   32.0510 C.ar       1 <1>        0.090
     16 C3         -3.1940   -3.2170   31.0690 C.ar       1 <1>        0.090
     17 C4         -3.6240   -1.9720   30.6170 C.ar       1 <1>       -0.010
     18 N3         -2.1280   -3.9700   30.7130 N.pl3      1 <1>        0.250
     19 C5         -2.1840   -5.0500   31.4430 C.2        1 <1>       -0.010
     20 N4         -3.1900   -5.0310   32.2170 N.2        1 <1>        0.060
     21 H3         -1.4151   -3.7370   30.0071 H          1 <1>        0.000
     22 H4         -1.4672   -5.8688   31.4010 H          1 <1>        0.000
     23 C1        -12.4780   -2.7250   31.6420 C.3        1 <1>        0.120
     24 C2        -11.1610   -2.0380   32.0880 C.3        1 <1>        0.110
     25 C3        -10.1560   -3.0670   32.6670 C.3        1 <1>        0.020
     26 H1        -13.1745   -1.9775   31.2343 H          1 <1>        0.000
     27 H3        -12.2750   -3.4748   30.8632 H          1 <1>        0.000
     28 H4        -11.3871   -1.2798   32.8522 H          1 <1>        0.000
     29 H5        -10.7050   -1.5309   31.2249 H          1 <1>        0.000
     30 H7         -9.9041   -3.8247   31.9103 H          1 <1>        0.000
     31 H8        -10.5880   -3.5730   33.5430 H          1 <1>        0.000
     32 C1         -2.8720   -1.1980   29.5400 C.3        1 <1>        0.000
     33 H2         -3.2619   -1.4749   28.5494 H          1 <1>        0.000
     34 O3         -3.0520    0.2050   29.7470 O.3        1 <1>        0.550
     35 H4         -1.8007   -1.4421   29.5930 H          1 <1>        0.000
     36 H6         -2.7171    0.4529   30.6007 H          1 <1>        0.000
     37 C1        -13.5360   -2.3800   33.8840 C.3        1 <1>        0.270
     38 C2        -13.1510   -3.4230   32.8380 C.3        1 <1>        0.180
     39 H3        -14.2360   -1.6570   33.4400 H          1 <1>        0.000
     40 H4        -14.0171   -2.8791   34.7381 H          1 <1>        0.000
     41 H5        -12.6329   -1.8539   34.2270 H          1 <1>        0.000
     42 H6        -12.4516   -4.1465   33.2823 H          1 <1>        0.000
     43 H8        -14.0541   -3.9491   32.4950 H          1 <1>        0.000
@<TRIPOS>BOND
     1    2    1 2  
     2    1    3 am 
     3    3    4 1  
     4    5    6 am 
     5    6    7 2  
     6    6    8 1  
     7    5    9 1  
     8    5   10 1  
     9    8   11 1  
    10    1    8 1  
    11   12   13 ar 
    12   12   17 ar 
    13   13   14 ar 
    14   14   15 ar 
    15   15   16 ar 
    16   15   20 1  
    17   16   17 ar 
    18   16   18 1  
    19   18   19 1  
    20   19   20 2  
    21   18   21 1  
    22   19   22 1  
    23    8   13 1  
    24   24   23 1  
    25   24   25 1  
    26   23   26 1  
    27   23   27 1  
    28   24   28 1  
    29   24   29 1  
    30   25   30 1  
    31   25   31 1  
    32    3   25 1  
    33   32   33 1  
    34   32   34 1  
    35   32   35 1  
    36   34   36 1  
    37   17   32 1  
    38   38   37 1  
    39   37   39 1  
    40   37   40 1  
    41   37   41 1  
    42   38   42 1  
    43   38   43 1  
    44   23   38 1  
# Name:          No_7_3
# Creation time: Wed Mar 20 11:48:25 2024


@<TRIPOS>MOLECULE
000002_000004
   43    44     1     1     1
SMALL
USER_CHARGES


@<TRIPOS>ATOM
      1 C30        -7.8780   -2.2990   32.2090 C.2        1 <1>        0.060
      2 O32        -7.9100   -2.7650   31.0800 O.2        1 <1>        0.520
      3 N4         -8.9360   -2.3980   33.0750 N.am       1 <1>        0.500
      4 H          -8.8660   -2.0071   33.9928 H          1 <1>        0.000
      5 N          -5.7470    0.7090   32.7950 N.am       1 <1>        0.510
      6 C          -6.7550   -0.0940   32.3890 C.2        1 <1>        0.050
      7 O          -7.7090    0.3250   31.7520 O.2        1 <1>        0.060
      8 C4         -6.6870   -1.5580   32.7430 C.3        1 <1>        0.050
      9 H1         -4.9757    0.3438   33.3162 H          1 <1>        0.000
     10 H2         -5.7670    1.6841   32.5742 H          1 <1>        0.000
     11 H5         -6.6610   -1.6740   33.8366 H          1 <1>        0.000
     12 N1         -4.7500   -1.4880   31.1890 N.ar       1 <1>        0.480
     13 C1         -5.4240   -2.1720   32.1480 C.ar       1 <1>        0.050
     14 N2         -5.0110   -3.3820   32.5940 N.ar       1 <1>        0.090
     15 C2         -3.8950   -3.9010   32.0510 C.ar       1 <1>        0.090
     16 C3         -3.1940   -3.2170   31.0690 C.ar       1 <1>        0.090
     17 C4         -3.6240   -1.9720   30.6170 C.ar       1 <1>       -0.010
     18 N3         -2.1280   -3.9700   30.7130 N.pl3      1 <1>        0.250
     19 C5         -2.1840   -5.0500   31.4430 C.2        1 <1>       -0.010
     20 N4         -3.1900   -5.0310   32.2170 N.2        1 <1>        0.060
     21 H3         -1.4151   -3.7370   30.0071 H          1 <1>        0.000
     22 H4         -1.4672   -5.8688   31.4010 H          1 <1>        0.000
     23 C1        -12.4780   -2.7250   31.6420 C.3        1 <1>        0.120
     24 C2        -11.1610   -2.0380   32.0880 C.3        1 <1>        0.110
     25 C3        -10.1560   -3.0670   32.6670 C.3        1 <1>        0.020
     26 H1        -13.1745   -1.9775   31.2343 H          1 <1>        0.000
     27 H3        -12.2750   -3.4748   30.8632 H          1 <1>        0.000
     28 H4        -11.3871   -1.2798   32.8522 H          1 <1>        0.000
     29 H5        -10.7050   -1.5309   31.2249 H          1 <1>        0.000
     30 H7         -9.9041   -3.8247   31.9103 H          1 <1>        0.000
     31 H8        -10.5880   -3.5730   33.5430 H          1 <1>        0.000
     32 C1         -2.8720   -1.1980   29.5400 C.3        1 <1>        0.000
     33 H2         -3.2619   -1.4749   28.5494 H          1 <1>        0.000
     34 O3         -3.0520    0.2050   29.7470 O.3        1 <1>        0.550
     35 H4         -1.8007   -1.4421   29.5930 H          1 <1>        0.000
     36 H6         -2.7171    0.4529   30.6007 H          1 <1>        0.000
     37 C1        -13.0660   -2.5210   34.0670 C.3        1 <1>        0.270
     38 C2        -13.1510   -3.4230   32.8380 C.3        1 <1>        0.180
     39 H3        -13.5789   -1.5702   33.8600 H          1 <1>        0.000
     40 H4        -13.5463   -3.0203   34.9215 H          1 <1>        0.000
     41 H5        -12.0100   -2.3240   34.3040 H          1 <1>        0.000
     42 H6        -12.6376   -4.3737   33.0442 H          1 <1>        0.000
     43 H8        -14.2070   -3.6200   32.6010 H          1 <1>        0.000
@<TRIPOS>BOND
     1    2    1 2  
     2    1    3 am 
     3    3    4 1  
     4    5    6 am 
     5    6    7 2  
     6    6    8 1  
     7    5    9 1  
     8    5   10 1  
     9    8   11 1  
    10    1    8 1  
    11   12   13 ar 
    12   12   17 ar 
    13   13   14 ar 
    14   14   15 ar 
    15   15   16 ar 
    16   15   20 1  
    17   16   17 ar 
    18   16   18 1  
    19   18   19 1  
    20   19   20 2  
    21   18   21 1  
    22   19   22 1  
    23    8   13 1  
    24   24   23 1  
    25   24   25 1  
    26   23   26 1  
    27   23   27 1  
    28   24   28 1  
    29   24   29 1  
    30   25   30 1  
    31   25   31 1  
    32    3   25 1  
    33   32   33 1  
    34   32   34 1  
    35   32   35 1  
    36   34   36 1  
    37   17   32 1  
    38   38   37 1  
    39   37   39 1  
    40   37   40 1  
    41   37   41 1  
    42   38   42 1  
    43   38   43 1  
    44   23   38 1  
# Name:          No_6_3
# Creation time: Wed Mar 20 11:48:25 2024


@<TRIPOS>MOLECULE
000002_000005
   43    44     1     1     1
SMALL
USER_CHARGES


@<TRIPOS>ATOM
      1 C30        -7.8780   -2.2990   32.2090 C.2        1 <1>        0.060
      2 O32        -7.9100   -2.7650   31.0800 O.2        1 <1>        0.520
      3 N4         -8.9360   -2.3980   33.0750 N.am       1 <1>        0.500
      4 H          -8.8660   -2.0071   33.9928 H          1 <1>        0.000
      5 N          -5.7470    0.7090   32.7950 N.am       1 <1>        0.510
      6 C          -6.7550   -0.0940   32.3890 C.2        1 <1>        0.050
      7 O          -7.7090    0.3250   31.7520 O.2        1 <1>        0.060
      8 C4         -6.6870   -1.5580   32.7430 C.3        1 <1>        0.050
      9 H1         -4.9757    0.3438   33.3162 H          1 <1>        0.000
     10 H2         -5.7670    1.6841   32.5742 H          1 <1>        0.000
     11 H5         -6.6610   -1.6740   33.8366 H          1 <1>        0.000
     12 N1         -4.7500   -1.4880   31.1890 N.ar       1 <1>        0.480
     13 C1         -5.4240   -2.1720   32.1480 C.ar       1 <1>        0.050
     14 N2         -5.0110   -3.3820   32.5940 N.ar       1 <1>        0.090
     15 C2         -3.8950   -3.9010   32.0510 C.ar       1 <1>        0.090
     16 C3         -3.1940   -3.2170   31.0690 C.ar       1 <1>        0.090
     17 C4         -3.6240   -1.9720   30.6170 C.ar       1 <1>       -0.010
     18 N3         -2.1280   -3.9700   30.7130 N.pl3      1 <1>        0.250
     19 C5         -2.1840   -5.0500   31.4430 C.2        1 <1>       -0.010
     20 N4         -3.1900   -5.0310   32.2170 N.2        1 <1>        0.060
     21 H3         -1.4151   -3.7370   30.0071 H          1 <1>        0.000
     22 H4         -1.4672   -5.8688   31.4010 H          1 <1>        0.000
     23 C1        -12.4780   -2.7250   31.6420 C.3        1 <1>        0.120
     24 C2        -11.1610   -2.0380   32.0880 C.3        1 <1>        0.110
     25 C3        -10.1560   -3.0670   32.6670 C.3        1 <1>        0.020
     26 H1        -13.1745   -1.9775   31.2343 H          1 <1>        0.000
     27 H3        -12.2750   -3.4748   30.8632 H          1 <1>        0.000
     28 H4        -11.3871   -1.2798   32.8522 H          1 <1>        0.000
     29 H5        -10.7050   -1.5309   31.2249 H          1 <1>        0.000
     30 H7         -9.9041   -3.8247   31.9103 H          1 <1>        0.000
     31 H8        -10.5880   -3.5730   33.5430 H          1 <1>        0.000
     32 C1         -2.8720   -1.1980   29.5400 C.3        1 <1>        0.000
     33 H2         -3.2619   -1.4749   28.5494 H          1 <1>        0.000
     34 O3         -3.0520    0.2050   29.7470 O.3        1 <1>        0.550
     35 H4         -1.8007   -1.4421   29.5930 H          1 <1>        0.000
     36 H6         -2.7171    0.4529   30.6007 H          1 <1>        0.000
     37 C1        -13.0660   -2.5210   34.0670 C.3        1 <1>        0.270
     38 C2        -13.1510   -3.4230   32.8380 C.3        1 <1>        0.180
     39 H3        -13.5789   -1.5702   33.8600 H          1 <1>        0.000
     40 H4        -13.5463   -3.0203   34.9215 H          1 <1>        0.000
     41 H5        -12.0100   -2.3240   34.3040 H          1 <1>        0.000
     42 H6        -12.6376   -4.3737   33.0442 H          1 <1>        0.000
     43 H8        -14.2070   -3.6200   32.6010 H          1 <1>        0.000
@<TRIPOS>BOND
     1    2    1 2  
     2    1    3 am 
     3    3    4 1  
     4    5    6 am 
     5    6    7 2  
     6    6    8 1  
     7    5    9 1  
     8    5   10 1  
     9    8   11 1  
    10    1    8 1  
    11   12   13 ar 
    12   12   17 ar 
    13   13   14 ar 
    14   14   15 ar 
    15   15   16 ar 
    16   15   20 1  
    17   16   17 ar 
    18   16   18 1  
    19   18   19 1  
    20   19   20 2  
    21   18   21 1  
    22   19   22 1  
    23    8   13 1  
    24   24   23 1  
    25   24   25 1  
    26   23   26 1  
    27   23   27 1  
    28   24   28 1  
    29   24   29 1  
    30   25   30 1  
    31   25   31 1  
    32    3   25 1  
    33   32   33 1  
    34   32   34 1  
    35   32   35 1  
    36   34   36 1  
    37   17   32 1  
    38   38   37 1  
    39   37   39 1  
    40   37   40 1  
    41   37   41 1  
    42   38   42 1  
    43   38   43 1  
    44   23   38 1  
# Name:          No_5_49
# Creation time: Wed Mar 20 11:48:25 2024


@<TRIPOS>MOLECULE
000002_000006
   43    44     1     1     1
SMALL
USER_CHARGES


@<TRIPOS>ATOM
      1 C30        -7.8780   -2.2990   32.2090 C.2        1 <1>        0.060
      2 O32        -7.9100   -2.7650   31.0800 O.2        1 <1>        0.520
      3 N4         -8.9360   -2.3980   33.0750 N.am       1 <1>        0.500
      4 H          -8.8660   -2.0071   33.9928 H          1 <1>        0.000
      5 N          -5.7470    0.7090   32.7950 N.am       1 <1>        0.510
      6 C          -6.7550   -0.0940   32.3890 C.2        1 <1>        0.050
      7 O          -7.7090    0.3250   31.7520 O.2        1 <1>        0.060
      8 C4         -6.6870   -1.5580   32.7430 C.3        1 <1>        0.050
      9 H1         -4.9757    0.3438   33.3162 H          1 <1>        0.000
     10 H2         -5.7670    1.6841   32.5742 H          1 <1>        0.000
     11 H5         -6.6610   -1.6740   33.8366 H          1 <1>        0.000
     12 N1         -4.7500   -1.4880   31.1890 N.ar       1 <1>        0.480
     13 C1         -5.4240   -2.1720   32.1480 C.ar       1 <1>        0.050
     14 N2         -5.0110   -3.3820   32.5940 N.ar       1 <1>        0.090
     15 C2         -3.8950   -3.9010   32.0510 C.ar       1 <1>        0.090
     16 C3         -3.1940   -3.2170   31.0690 C.ar       1 <1>        0.090
     17 C4         -3.6240   -1.9720   30.6170 C.ar       1 <1>       -0.010
     18 N3         -2.1280   -3.9700   30.7130 N.pl3      1 <1>        0.250
     19 C5         -2.1840   -5.0500   31.4430 C.2        1 <1>       -0.010
     20 N4         -3.1900   -5.0310   32.2170 N.2        1 <1>        0.060
     21 H3         -1.4151   -3.7370   30.0071 H          1 <1>        0.000
     22 H4         -1.4672   -5.8688   31.4010 H          1 <1>        0.000
     23 C1        -12.4780   -2.7250   31.6420 C.3        1 <1>        0.120
     24 C2        -11.1610   -2.0380   32.0880 C.3        1 <1>        0.110
     25 C3        -10.1560   -3.0670   32.6670 C.3        1 <1>        0.020
     26 H1        -13.1745   -1.9775   31.2343 H          1 <1>        0.000
     27 H3        -12.2750   -3.4748   30.8632 H          1 <1>        0.000
     28 H4        -11.3871   -1.2798   32.8522 H          1 <1>        0.000
     29 H5        -10.7050   -1.5309   31.2249 H          1 <1>        0.000
     30 H7         -9.9041   -3.8247   31.9103 H          1 <1>        0.000
     31 H8        -10.5880   -3.5730   33.5430 H          1 <1>        0.000
     32 C1         -2.8720   -1.1980   29.5400 C.3        1 <1>        0.000
     33 H2         -3.2619   -1.4749   28.5494 H          1 <1>        0.000
     34 O3         -3.0520    0.2050   29.7470 O.3        1 <1>        0.550
     35 H4         -1.8007   -1.4421   29.5930 H          1 <1>        0.000
     36 H6         -2.7171    0.4529   30.6007 H          1 <1>        0.000
     37 C1        -13.0660   -2.5210   34.0670 C.3        1 <1>        0.270
     38 C2        -13.1510   -3.4230   32.8380 C.3        1 <1>        0.180
     39 H3        -13.5789   -1.5702   33.8600 H          1 <1>        0.000
     40 H4        -13.5463   -3.0203   34.9215 H          1 <1>        0.000
     41 H5        -12.0100   -2.3240   34.3040 H          1 <1>        0.000
     42 H6        -12.6376   -4.3737   33.0442 H          1 <1>        0.000
     43 H8        -14.2070   -3.6200   32.6010 H          1 <1>        0.000
@<TRIPOS>BOND
     1    2    1 2  
     2    1    3 am 
     3    3    4 1  
     4    5    6 am 
     5    6    7 2  
     6    6    8 1  
     7    5    9 1  
     8    5   10 1  
     9    8   11 1  
    10    1    8 1  
    11   12   13 ar 
    12   12   17 ar 
    13   13   14 ar 
    14   14   15 ar 
    15   15   16 ar 
    16   15   20 1  
    17   16   17 ar 
    18   16   18 1  
    19   18   19 1  
    20   19   20 2  
    21   18   21 1  
    22   19   22 1  
    23    8   13 1  
    24   24   23 1  
    25   24   25 1  
    26   23   26 1  
    27   23   27 1  
    28   24   28 1  
    29   24   29 1  
    30   25   30 1  
    31   25   31 1  
    32    3   25 1  
    33   32   33 1  
    34   32   34 1  
    35   32   35 1  
    36   34   36 1  
    37   17   32 1  
    38   38   37 1  
    39   37   39 1  
    40   37   40 1  
    41   37   41 1  
    42   38   42 1  
    43   38   43 1  
    44   23   38 1  
# Name:          No_7_108
# Creation time: Wed Mar 20 11:48:25 2024


@<TRIPOS>MOLECULE
000002_000007
   43    44     1     1     1
SMALL
USER_CHARGES


@<TRIPOS>ATOM
      1 C30        -7.8780   -2.2990   32.2090 C.2        1 <1>        0.060
      2 O32        -7.9100   -2.7650   31.0800 O.2        1 <1>        0.520
      3 N4         -8.9360   -2.3980   33.0750 N.am       1 <1>        0.500
      4 H          -8.8660   -2.0071   33.9928 H          1 <1>        0.000
      5 N          -5.7470    0.7090   32.7950 N.am       1 <1>        0.510
      6 C          -6.7550   -0.0940   32.3890 C.2        1 <1>        0.050
      7 O          -7.7090    0.3250   31.7520 O.2        1 <1>        0.060
      8 C4         -6.6870   -1.5580   32.7430 C.3        1 <1>        0.050
      9 H1         -4.9757    0.3438   33.3162 H          1 <1>        0.000
     10 H2         -5.7670    1.6841   32.5742 H          1 <1>        0.000
     11 H5         -6.6610   -1.6740   33.8366 H          1 <1>        0.000
     12 N1         -4.8370   -3.2150   32.7880 N.ar       1 <1>        0.090
     13 C1         -5.4240   -2.1720   32.1480 C.ar       1 <1>        0.050
     14 N2         -4.9250   -1.6590   30.9990 N.ar       1 <1>        0.530
     15 C2         -3.8090   -2.2190   30.4970 C.ar       1 <1>        0.080
     16 C3         -3.1940   -3.2840   31.1380 C.ar       1 <1>        0.090
     17 C4         -3.7150   -3.8070   32.3190 C.ar       1 <1>        0.050
     18 N3         -2.1060   -3.6360   30.4150 N.pl3      1 <1>        0.260
     19 C5         -2.0680   -2.8250   29.3940 C.2        1 <1>        0.080
     20 N4         -3.0360   -2.0040   29.4210 N.2        1 <1>        0.070
     21 H3         -1.4411   -4.3929   30.6290 H          1 <1>        0.000
     22 H4         -1.3091   -2.8420   28.6131 H          1 <1>        0.000
     23 C1        -11.3450   -2.4460   33.3950 C.3        1 <1>        0.130
     24 C2        -10.1560   -3.0670   32.6670 C.3        1 <1>        0.020
     25 H3        -11.4110   -1.3773   33.1431 H          1 <1>        0.000
     26 H4        -12.2701   -2.9540   33.0850 H          1 <1>        0.000
     27 H6        -10.0900   -4.1357   32.9189 H          1 <1>        0.000
     28 H8        -10.2910   -2.9540   31.5812 H          1 <1>        0.000
     29 C1        -11.1560   -2.6040   34.9150 C.3        1 <1>        0.070
     30 H2        -10.3599   -1.9269   35.2581 H          1 <1>        0.000
     31 O3        -12.3780   -2.2820   35.5830 O.3        1 <1>        0.530
     32 H4        -10.8762   -3.6431   35.1428 H          1 <1>        0.000
     33 H6        -13.0710   -2.8630   35.2920 H          1 <1>        0.000
     34 C1         -3.0600   -4.9790   33.0420 C.3        1 <1>       -0.110
     35 C2         -4.0390   -5.5760   34.0860 C.3        1 <1>        0.170
     36 C3         -3.4010   -6.7720   34.8400 C.3        1 <1>        0.120
     37 H2         -2.7818   -5.7395   32.2975 H          1 <1>        0.000
     38 H3         -2.1463   -4.6181   33.5368 H          1 <1>        0.000
     39 H4         -4.9525   -5.9148   33.5753 H          1 <1>        0.000
     40 H5         -4.3191   -4.7968   34.8102 H          1 <1>        0.000
     41 H6         -4.1125   -7.1793   35.5735 H          1 <1>        0.000
     42 H7         -2.4943   -6.4488   35.3724 H          1 <1>        0.000
     43 H8         -3.1310   -7.5701   34.1329 H          1 <1>        0.000
@<TRIPOS>BOND
     1    2    1 2  
     2    1    3 am 
     3    3    4 1  
     4    5    6 am 
     5    6    7 2  
     6    6    8 1  
     7    5    9 1  
     8    5   10 1  
     9    8   11 1  
    10    1    8 1  
    11   12   13 ar 
    12   12   17 ar 
    13   13   14 ar 
    14   14   15 ar 
    15   15   16 ar 
    16   15   20 1  
    17   16   17 ar 
    18   16   18 1  
    19   18   19 1  
    20   19   20 2  
    21   18   21 1  
    22   19   22 1  
    23    8   13 1  
    24   24   23 1  
    25   23   25 1  
    26   23   26 1  
    27   24   27 1  
    28   24   28 1  
    29    3   24 1  
    30   29   30 1  
    31   29   31 1  
    32   29   32 1  
    33   31   33 1  
    34   23   29 1  
    35   35   34 1  
    36   35   36 1  
    37   34   37 1  
    38   34   38 1  
    39   35   39 1  
    40   35   40 1  
    41   36   41 1  
    42   36   42 1  
    43   36   43 1  
    44   17   34 1  
# Name:          No_7_177
# Creation time: Wed Mar 20 11:48:25 2024


@<TRIPOS>MOLECULE
000002_000008
   43    44     1     1     1
SMALL
USER_CHARGES


@<TRIPOS>ATOM
      1 C30        -7.8780   -2.2990   32.2090 C.2        1 <1>        0.060
      2 O32        -7.9100   -2.7650   31.0800 O.2        1 <1>        0.520
      3 N4         -8.9360   -2.3980   33.0750 N.am       1 <1>        0.500
      4 H          -8.8660   -2.0071   33.9928 H          1 <1>        0.000
      5 N          -5.7470    0.7090   32.7950 N.am       1 <1>        0.510
      6 C          -6.7550   -0.0940   32.3890 C.2        1 <1>        0.050
      7 O          -7.7090    0.3250   31.7520 O.2        1 <1>        0.060
      8 C4         -6.6870   -1.5580   32.7430 C.3        1 <1>        0.050
      9 H1         -4.9757    0.3438   33.3162 H          1 <1>        0.000
     10 H2         -5.7670    1.6841   32.5742 H          1 <1>        0.000
     11 H5         -6.6610   -1.6740   33.8366 H          1 <1>        0.000
     12 N1         -4.8370   -3.2150   32.7880 N.ar       1 <1>        0.090
     13 C1         -5.4240   -2.1720   32.1480 C.ar       1 <1>        0.050
     14 N2         -4.9250   -1.6590   30.9990 N.ar       1 <1>        0.530
     15 C2         -3.8090   -2.2190   30.4970 C.ar       1 <1>        0.080
     16 C3         -3.1940   -3.2840   31.1380 C.ar       1 <1>        0.090
     17 C4         -3.7150   -3.8070   32.3190 C.ar       1 <1>        0.050
     18 N3         -2.1060   -3.6360   30.4150 N.pl3      1 <1>        0.260
     19 C5         -2.0680   -2.8250   29.3940 C.2        1 <1>        0.080
     20 N4         -3.0360   -2.0040   29.4210 N.2        1 <1>        0.070
     21 H3         -1.4411   -4.3929   30.6290 H          1 <1>        0.000
     22 H4         -1.3091   -2.8420   28.6131 H          1 <1>        0.000
     23 C1        -11.3450   -2.4460   33.3950 C.3        1 <1>        0.130
     24 C2        -10.1560   -3.0670   32.6670 C.3        1 <1>        0.020
     25 H3        -11.4110   -1.3773   33.1431 H          1 <1>        0.000
     26 H4        -12.2701   -2.9540   33.0850 H          1 <1>        0.000
     27 H6        -10.0900   -4.1357   32.9189 H          1 <1>        0.000
     28 H8        -10.2910   -2.9540   31.5812 H          1 <1>        0.000
     29 C1        -11.1560   -2.6040   34.9150 C.3        1 <1>        0.070
     30 H2        -10.3599   -1.9269   35.2581 H          1 <1>        0.000
     31 O3        -12.3780   -2.2820   35.5830 O.3        1 <1>        0.530
     32 H4        -10.8762   -3.6431   35.1428 H          1 <1>        0.000
     33 H6        -13.0710   -2.8630   35.2920 H          1 <1>        0.000
     34 C1         -3.3520   -6.6800   34.8400 C.3        1 <1>        0.150
     35 C2         -4.0070   -5.5070   34.1160 C.3        1 <1>        0.150
     36 C3         -3.0600   -4.9790   33.0420 C.3        1 <1>       -0.110
     37 H4         -4.0352   -7.0611   35.6133 H          1 <1>        0.000
     38 H5         -3.1320   -7.4801   34.1179 H          1 <1>        0.000
     39 H6         -2.4160   -6.3440   35.3100 H          1 <1>        0.000
     40 H7         -4.2272   -4.7064   34.8375 H          1 <1>        0.000
     41 H8         -4.9424   -5.8438   33.6453 H          1 <1>        0.000
     42 H10        -2.8400   -5.7791   32.3199 H          1 <1>        0.000
     43 H11        -2.1246   -4.6422   33.5127 H          1 <1>        0.000
@<TRIPOS>BOND
     1    2    1 2  
     2    1    3 am 
     3    3    4 1  
     4    5    6 am 
     5    6    7 2  
     6    6    8 1  
     7    5    9 1  
     8    5   10 1  
     9    8   11 1  
    10    1    8 1  
    11   12   13 ar 
    12   12   17 ar 
    13   13   14 ar 
    14   14   15 ar 
    15   15   16 ar 
    16   15   20 1  
    17   16   17 ar 
    18   16   18 1  
    19   18   19 1  
    20   19   20 2  
    21   18   21 1  
    22   19   22 1  
    23    8   13 1  
    24   24   23 1  
    25   23   25 1  
    26   23   26 1  
    27   24   27 1  
    28   24   28 1  
    29    3   24 1  
    30   29   30 1  
    31   29   31 1  
    32   29   32 1  
    33   31   33 1  
    34   23   29 1  
    35   35   34 1  
    36   35   36 1  
    37   34   37 1  
    38   34   38 1  
    39   34   39 1  
    40   35   40 1  
    41   35   41 1  
    42   36   42 1  
    43   36   43 1  
    44   17   36 1  
# Name:          No_7_143
# Creation time: Wed Mar 20 11:48:25 2024


@<TRIPOS>MOLECULE
000003_000001
   49    50     1     1     1
SMALL
USER_CHARGES


@<TRIPOS>ATOM
      1 C30        -7.8780   -2.2990   32.2090 C.2        1 <1>        0.060
      2 O32        -7.9100   -2.7650   31.0800 O.2        1 <1>        0.520
      3 N4         -8.9360   -2.3980   33.0750 N.am       1 <1>        0.500
      4 H          -8.8660   -2.0071   33.9928 H          1 <1>        0.000
      5 N          -5.7470    0.7090   32.7950 N.am       1 <1>        0.510
      6 C          -6.7550   -0.0940   32.3890 C.2        1 <1>        0.050
      7 O          -7.7090    0.3250   31.7520 O.2        1 <1>        0.060
      8 C4         -6.6870   -1.5580   32.7430 C.3        1 <1>        0.050
      9 H1         -4.9757    0.3438   33.3162 H          1 <1>        0.000
     10 H2         -5.7670    1.6841   32.5742 H          1 <1>        0.000
     11 H5         -6.6610   -1.6740   33.8366 H          1 <1>        0.000
     12 N1         -5.2610   -2.2050   30.8100 N.ar       1 <1>        0.520
     13 C1         -5.4240   -2.1720   32.1480 C.ar       1 <1>        0.050
     14 C2         -4.4310   -2.7020   32.9780 C.ar       1 <1>        0.030
     15 N2         -3.3220   -3.2400   32.4310 N.ar       1 <1>        0.060
     16 C3         -3.1600   -3.2730   31.0920 C.ar       1 <1>        0.050
     17 C4         -4.1520   -2.7440   30.2620 C.ar       1 <1>        0.070
     18 H2         -4.5450   -2.6830   34.0558 H          1 <1>        0.000
     19 H4         -4.0379   -2.7620   29.1842 H          1 <1>        0.000
     20 C1        -10.1560   -3.0670   32.6670 C.3        1 <1>        0.020
     21 C2        -10.8090   -3.7740   33.8830 C.3        1 <1>        0.150
     22 C3        -12.1180   -4.5000   33.4780 C.3        1 <1>        0.150
     23 H2        -10.8421   -2.3179   32.2449 H          1 <1>        0.000
     24 H3         -9.9080   -3.7999   31.8851 H          1 <1>        0.000
     25 H4        -11.0320   -3.0280   34.6600 H          1 <1>        0.000
     26 H5        -10.1019   -4.5051   34.3020 H          1 <1>        0.000
     27 H7        -11.9119   -5.2635   32.7135 H          1 <1>        0.000
     28 H8        -12.8457   -3.7813   33.0732 H          1 <1>        0.000
     29 C1         -1.8970   -3.8870   30.4970 C.3        1 <1>       -0.020
     30 O3         -1.0340   -2.8460   30.0320 O.3        1 <1>        0.140
     31 H4         -2.1682   -4.5414   29.6555 H          1 <1>        0.000
     32 H5         -1.3781   -4.4769   31.2669 H          1 <1>        0.000
     33 C           2.5200   -3.3640   29.2100 C.ar       1 <1>        0.050
     34 C           2.4390   -4.4920   28.3950 C.ar       1 <1>        0.040
     35 C           1.2000   -5.0700   28.1250 C.ar       1 <1>        0.030
     36 C           0.0410   -4.5210   28.6720 C.ar       1 <1>        0.160
     37 C           0.1220   -3.3930   29.4870 C.ar       1 <1>        0.030
     38 C           1.3610   -2.8150   29.7570 C.ar       1 <1>       -0.000
     39 O7          3.5220   -4.8560   27.6030 O.3        1 <1>        0.030
     40 H1          3.4842   -2.9149   29.4190 H          1 <1>        0.000
     41 H2          1.1370   -5.9470   27.4910 H          1 <1>        0.000
     42 H3         -0.9228   -4.9709   28.4630 H          1 <1>        0.000
     43 H5          1.4240   -1.9380   30.3910 H          1 <1>        0.000
     44 H6          4.2980   -4.3910   27.8930 H          1 <1>        0.000
     45 C1        -12.7420   -5.1910   34.7050 C.3        1 <1>        0.080
     46 O3        -12.3530   -4.4950   35.8930 O.3        1 <1>        0.810
     47 H4        -12.3901   -6.2318   34.7580 H          1 <1>        0.000
     48 H5        -13.8382   -5.1780   34.6150 H          1 <1>        0.000
     49 H6        -12.7339   -4.9159   36.6548 H          1 <1>        0.000
@<TRIPOS>BOND
     1    2    1 2  
     2    1    3 am 
     3    3    4 1  
     4    5    6 am 
     5    6    7 2  
     6    6    8 1  
     7    5    9 1  
     8    5   10 1  
     9    8   11 1  
    10    1    8 1  
    11   12   13 ar 
    12   12   17 ar 
    13   13   14 ar 
    14   14   15 ar 
    15   15   16 ar 
    16   16   17 ar 
    17   14   18 1  
    18   17   19 1  
    19    8   13 1  
    20   21   20 1  
    21   21   22 1  
    22   20   23 1  
    23   20   24 1  
    24   21   25 1  
    25   21   26 1  
    26   22   27 1  
    27   22   28 1  
    28    3   20 1  
    29   29   30 1  
    30   29   31 1  
    31   29   32 1  
    32   16   29 1  
    33   33   34 ar 
    34   33   38 ar 
    35   38   37 ar 
    36   37   36 ar 
    37   36   35 ar 
    38   35   34 ar 
    39   34   39 1  
    40   33   40 1  
    41   35   41 1  
    42   36   42 1  
    43   38   43 1  
    44   39   44 1  
    45   30   37 1  
    46   45   46 1  
    47   45   47 1  
    48   45   48 1  
    49   46   49 1  
    50   22   45 1  
    
    
# Name:          No_7_25
# Creation time: Wed Mar 20 11:53:30 2024


@<TRIPOS>MOLECULE
000001_000001
   52    53     1     1     1
SMALL
USER_CHARGES


@<TRIPOS>ATOM
      1 C30        -7.8780   -2.2990   32.2090 C.2        1 <1>        0.060
      2 O32        -7.9100   -2.7650   31.0800 O.2        1 <1>        0.520
      3 N4         -8.9360   -2.3980   33.0750 N.am       1 <1>        0.500
      4 H          -8.8660   -2.0071   33.9928 H          1 <1>        0.000
      5 C1        -10.1560   -3.0670   32.6670 C.3        1 <1>        0.020
      6 H1         -9.9791   -3.6127   31.7285 H          1 <1>        0.000
      7 H3        -10.9499   -2.3211   32.5140 H          1 <1>        0.000
      8 O1        -10.9790   -5.7490   34.8830 O.3        1 <1>        0.030
      9 N1        -11.4350   -4.6910   35.6990 N.2        1 <1>        0.230
     10 C1        -11.1900   -3.6610   35.0030 C.2        1 <1>        0.040
     11 C2        -10.5780   -4.0340   33.7350 C.2        1 <1>        0.070
     12 N2        -10.4480   -5.2920   33.6570 N.2        1 <1>        0.040
     13 H1        -11.4090   -2.6400   35.3120 H          1 <1>        0.000
     14 C          -5.4810   -2.4590   32.7300 C.2        1 <1>        0.020
     15 O          -4.4550   -2.1400   32.1470 O.2        1 <1>        0.060
     16 O          -5.6320   -3.6100   33.4030 O.3        1 <1>        0.170
     17 C4         -6.6870   -1.5580   32.7430 C.3        1 <1>        0.050
     18 C5         -4.4680   -4.4580   33.3820 C.3        1 <1>        0.030
     19 H2         -4.7029   -5.3647   33.9588 H          1 <1>        0.000
     20 H3         -3.6053   -3.9622   33.8509 H          1 <1>        0.000
     21 H4         -6.8961   -1.2379   33.7744 H          1 <1>        0.000
     22 C1         -4.1070   -4.8760   31.9450 C.3        1 <1>        0.010
     23 C2         -3.3770   -6.2140   31.9730 C.ar       1 <1>        0.140
     24 C3         -2.0770   -6.3120   31.4660 C.ar       1 <1>        0.170
     25 C4         -1.4070   -7.5390   31.4920 C.ar       1 <1>        0.170
     26 C5         -2.0370   -8.6680   32.0240 C.ar       1 <1>        0.210
     27 C6         -3.3360   -8.5710   32.5300 C.ar       1 <1>        0.200
     28 C7         -4.0060   -7.3440   32.5050 C.ar       1 <1>        0.220
     29 H1         -3.4567   -4.1127   31.4928 H          1 <1>        0.000
     30 H3         -5.0266   -4.9730   31.3493 H          1 <1>        0.000
     31 H4         -1.5889   -5.4367   31.0529 H          1 <1>        0.000
     32 H5         -0.3997   -7.6150   31.0989 H          1 <1>        0.000
     33 H6         -1.5170   -9.6189   32.0440 H          1 <1>        0.000
     34 H7         -3.8241   -9.4463   32.9431 H          1 <1>        0.000
     35 H8         -5.0135   -7.2680   32.8978 H          1 <1>        0.000
     36 N          -7.7090    0.3430   31.5320 N.am       1 <1>        0.020
     37 C          -7.7050    1.4600   30.7710 C.2        1 <1>        0.030
     38 O          -6.6860    1.9730   30.3370 O.2        1 <1>        0.070
     39 C4         -6.4490   -0.3100   31.8730 C.3        1 <1>       -0.000
     40 H2         -8.5672   -0.0451   31.8681 H          1 <1>        0.000
     41 H3         -5.8043    0.3836   32.4327 H          1 <1>        0.000
     42 H4         -5.9258   -0.6211   30.9567 H          1 <1>        0.000
     43 C1         -9.6880    1.3560   29.3000 C.3        1 <1>        0.030
     44 C2         -9.0030    2.1290   30.4230 C.3        1 <1>        0.010
     45 H3        -10.6394    1.8457   29.0452 H          1 <1>        0.000
     46 H5         -9.8840    0.3251   29.6300 H          1 <1>        0.000
     47 H7         -9.6560    2.1450   31.3080 H          1 <1>        0.000
     48 H8         -8.8080    3.1600   30.0930 H          1 <1>        0.000
     49 N1         -8.8160    1.3350   28.1170 N.4        1 <1>        1.220
     50 H1         -7.8539    1.4150   28.4070 H          1 <1>        0.000
     51 H2         -8.9460    0.4689   27.6179 H          1 <1>        0.000
     52 H4         -9.0499    2.1076   27.5133 H          1 <1>        0.000
@<TRIPOS>BOND
     1    2    1 2  
     2    1    3 am 
     3    3    4 1  
     4    5    6 1  
     5    5    7 1  
     6    3    5 1  
     7    8    9 1  
     8    8   12 1  
     9    9   10 2  
    10   10   11 1  
    11   11   12 2  
    12   10   13 1  
    13    5   11 1  
    14   14   15 2  
    15   14   16 1  
    16   14   17 1  
    17   16   18 1  
    18   18   19 1  
    19   18   20 1  
    20   17   21 1  
    21    1   17 1  
    22   22   23 1  
    23   23   24 ar 
    24   23   28 ar 
    25   28   27 ar 
    26   27   26 ar 
    27   26   25 ar 
    28   25   24 ar 
    29   22   29 1  
    30   22   30 1  
    31   24   31 1  
    32   25   32 1  
    33   26   33 1  
    34   27   34 1  
    35   28   35 1  
    36   18   22 1  
    37   36   37 am 
    38   37   38 2  
    39   36   39 1  
    40   36   40 1  
    41   39   41 1  
    42   39   42 1  
    43   17   39 1  
    44   44   43 1  
    45   43   45 1  
    46   43   46 1  
    47   44   47 1  
    48   44   48 1  
    49   37   44 1  
    50   49   50 1  
    51   49   51 1  
    52   49   52 1  
    53   43   49 1  
# Name:          No_7_26
# Creation time: Wed Mar 20 11:53:30 2024


@<TRIPOS>MOLECULE
000001_000002
   52    53     1     1     1
SMALL
USER_CHARGES


@<TRIPOS>ATOM
      1 C30        -7.8780   -2.2990   32.2090 C.2        1 <1>        0.060
      2 O32        -7.9100   -2.7650   31.0800 O.2        1 <1>        0.520
      3 N4         -8.9360   -2.3980   33.0750 N.am       1 <1>        0.500
      4 H          -8.8660   -2.0071   33.9928 H          1 <1>        0.000
      5 C1        -10.1560   -3.0670   32.6670 C.3        1 <1>        0.020
      6 H1         -9.9791   -3.6127   31.7285 H          1 <1>        0.000
      7 H3        -10.9499   -2.3211   32.5140 H          1 <1>        0.000
      8 O1        -10.9790   -5.7490   34.8830 O.3        1 <1>        0.030
      9 N1        -11.4350   -4.6910   35.6990 N.2        1 <1>        0.230
     10 C1        -11.1900   -3.6610   35.0030 C.2        1 <1>        0.040
     11 C2        -10.5780   -4.0340   33.7350 C.2        1 <1>        0.070
     12 N2        -10.4480   -5.2920   33.6570 N.2        1 <1>        0.040
     13 H1        -11.4090   -2.6400   35.3120 H          1 <1>        0.000
     14 C          -5.4810   -2.4590   32.7300 C.2        1 <1>        0.020
     15 O          -4.4550   -2.1400   32.1470 O.2        1 <1>        0.060
     16 O          -5.6320   -3.6100   33.4030 O.3        1 <1>        0.170
     17 C4         -6.6870   -1.5580   32.7430 C.3        1 <1>        0.050
     18 C5         -4.4680   -4.4580   33.3820 C.3        1 <1>        0.030
     19 H2         -4.7029   -5.3647   33.9588 H          1 <1>        0.000
     20 H3         -3.6053   -3.9622   33.8509 H          1 <1>        0.000
     21 H4         -6.8961   -1.2379   33.7744 H          1 <1>        0.000
     22 C1         -4.1070   -4.8760   31.9450 C.3        1 <1>        0.010
     23 C2         -3.3770   -6.2140   31.9730 C.ar       1 <1>        0.140
     24 C3         -2.0770   -6.3120   31.4660 C.ar       1 <1>        0.170
     25 C4         -1.4070   -7.5390   31.4920 C.ar       1 <1>        0.170
     26 C5         -2.0370   -8.6680   32.0240 C.ar       1 <1>        0.210
     27 C6         -3.3360   -8.5710   32.5300 C.ar       1 <1>        0.200
     28 C7         -4.0060   -7.3440   32.5050 C.ar       1 <1>        0.220
     29 H1         -3.4567   -4.1127   31.4928 H          1 <1>        0.000
     30 H3         -5.0266   -4.9730   31.3493 H          1 <1>        0.000
     31 H4         -1.5889   -5.4367   31.0529 H          1 <1>        0.000
     32 H5         -0.3997   -7.6150   31.0989 H          1 <1>        0.000
     33 H6         -1.5170   -9.6189   32.0440 H          1 <1>        0.000
     34 H7         -3.8241   -9.4463   32.9431 H          1 <1>        0.000
     35 H8         -5.0135   -7.2680   32.8978 H          1 <1>        0.000
     36 N          -7.7090    0.3430   31.5320 N.am       1 <1>        0.020
     37 C          -7.7050    1.4600   30.7710 C.2        1 <1>        0.030
     38 O          -6.6860    1.9730   30.3370 O.2        1 <1>        0.070
     39 C4         -6.4490   -0.3100   31.8730 C.3        1 <1>       -0.000
     40 H2         -8.5672   -0.0451   31.8681 H          1 <1>        0.000
     41 H3         -5.8043    0.3836   32.4327 H          1 <1>        0.000
     42 H4         -5.9258   -0.6211   30.9567 H          1 <1>        0.000
     43 C1         -9.6880    1.3560   29.3000 C.3        1 <1>        0.030
     44 C2         -9.0030    2.1290   30.4230 C.3        1 <1>        0.010
     45 H3        -10.6394    1.8457   29.0452 H          1 <1>        0.000
     46 H5         -9.8840    0.3251   29.6300 H          1 <1>        0.000
     47 H7         -9.6560    2.1450   31.3080 H          1 <1>        0.000
     48 H8         -8.8080    3.1600   30.0930 H          1 <1>        0.000
     49 N1         -8.8160    1.3350   28.1170 N.4        1 <1>        1.220
     50 H1         -8.0093    0.7602   28.3039 H          1 <1>        0.000
     51 H2         -9.3228    0.9582   27.3314 H          1 <1>        0.000
     52 H4         -8.5162    2.2735   27.9041 H          1 <1>        0.000
@<TRIPOS>BOND
     1    2    1 2  
     2    1    3 am 
     3    3    4 1  
     4    5    6 1  
     5    5    7 1  
     6    3    5 1  
     7    8    9 1  
     8    8   12 1  
     9    9   10 2  
    10   10   11 1  
    11   11   12 2  
    12   10   13 1  
    13    5   11 1  
    14   14   15 2  
    15   14   16 1  
    16   14   17 1  
    17   16   18 1  
    18   18   19 1  
    19   18   20 1  
    20   17   21 1  
    21    1   17 1  
    22   22   23 1  
    23   23   24 ar 
    24   23   28 ar 
    25   28   27 ar 
    26   27   26 ar 
    27   26   25 ar 
    28   25   24 ar 
    29   22   29 1  
    30   22   30 1  
    31   24   31 1  
    32   25   32 1  
    33   26   33 1  
    34   27   34 1  
    35   28   35 1  
    36   18   22 1  
    37   36   37 am 
    38   37   38 2  
    39   36   39 1  
    40   36   40 1  
    41   39   41 1  
    42   39   42 1  
    43   17   39 1  
    44   44   43 1  
    45   43   45 1  
    46   43   46 1  
    47   44   47 1  
    48   44   48 1  
    49   37   44 1  
    50   49   50 1  
    51   49   51 1  
    52   49   52 1  
    53   43   49 1  
# Name:          No_7_27
# Creation time: Wed Mar 20 11:53:30 2024


@<TRIPOS>MOLECULE
000001_000003
   52    53     1     1     1
SMALL
USER_CHARGES


@<TRIPOS>ATOM
      1 C30        -7.8780   -2.2990   32.2090 C.2        1 <1>        0.060
      2 O32        -7.9100   -2.7650   31.0800 O.2        1 <1>        0.520
      3 N4         -8.9360   -2.3980   33.0750 N.am       1 <1>        0.500
      4 H          -8.8660   -2.0071   33.9928 H          1 <1>        0.000
      5 C1        -10.1560   -3.0670   32.6670 C.3        1 <1>        0.020
      6 H1         -9.9791   -3.6127   31.7285 H          1 <1>        0.000
      7 H3        -10.9499   -2.3211   32.5140 H          1 <1>        0.000
      8 O1        -10.9790   -5.7490   34.8830 O.3        1 <1>        0.030
      9 N1        -11.4350   -4.6910   35.6990 N.2        1 <1>        0.230
     10 C1        -11.1900   -3.6610   35.0030 C.2        1 <1>        0.040
     11 C2        -10.5780   -4.0340   33.7350 C.2        1 <1>        0.070
     12 N2        -10.4480   -5.2920   33.6570 N.2        1 <1>        0.040
     13 H1        -11.4090   -2.6400   35.3120 H          1 <1>        0.000
     14 C          -5.4810   -2.4590   32.7300 C.2        1 <1>        0.020
     15 O          -4.4550   -2.1400   32.1470 O.2        1 <1>        0.060
     16 O          -5.6320   -3.6100   33.4030 O.3        1 <1>        0.170
     17 C4         -6.6870   -1.5580   32.7430 C.3        1 <1>        0.050
     18 C5         -4.4680   -4.4580   33.3820 C.3        1 <1>        0.030
     19 H2         -4.7029   -5.3647   33.9588 H          1 <1>        0.000
     20 H3         -3.6053   -3.9622   33.8509 H          1 <1>        0.000
     21 H4         -6.8961   -1.2379   33.7744 H          1 <1>        0.000
     22 C1         -4.1070   -4.8760   31.9450 C.3        1 <1>        0.010
     23 C2         -3.3770   -6.2140   31.9730 C.ar       1 <1>        0.140
     24 C3         -2.0770   -6.3120   31.4660 C.ar       1 <1>        0.170
     25 C4         -1.4070   -7.5390   31.4920 C.ar       1 <1>        0.170
     26 C5         -2.0370   -8.6680   32.0240 C.ar       1 <1>        0.210
     27 C6         -3.3360   -8.5710   32.5300 C.ar       1 <1>        0.200
     28 C7         -4.0060   -7.3440   32.5050 C.ar       1 <1>        0.220
     29 H1         -3.4567   -4.1127   31.4928 H          1 <1>        0.000
     30 H3         -5.0266   -4.9730   31.3493 H          1 <1>        0.000
     31 H4         -1.5889   -5.4367   31.0529 H          1 <1>        0.000
     32 H5         -0.3997   -7.6150   31.0989 H          1 <1>        0.000
     33 H6         -1.5170   -9.6189   32.0440 H          1 <1>        0.000
     34 H7         -3.8241   -9.4463   32.9431 H          1 <1>        0.000
     35 H8         -5.0135   -7.2680   32.8978 H          1 <1>        0.000
     36 N          -7.7090    0.3430   31.5320 N.am       1 <1>        0.020
     37 C          -7.7050    1.4600   30.7710 C.2        1 <1>        0.030
     38 O          -6.6860    1.9730   30.3370 O.2        1 <1>        0.070
     39 C4         -6.4490   -0.3100   31.8730 C.3        1 <1>       -0.000
     40 H2         -8.5672   -0.0451   31.8681 H          1 <1>        0.000
     41 H3         -5.8043    0.3836   32.4327 H          1 <1>        0.000
     42 H4         -5.9258   -0.6211   30.9567 H          1 <1>        0.000
     43 C1         -9.6880    1.3560   29.3000 C.3        1 <1>        0.030
     44 C2         -9.0030    2.1290   30.4230 C.3        1 <1>        0.010
     45 H3        -10.6394    1.8457   29.0452 H          1 <1>        0.000
     46 H5         -9.8840    0.3251   29.6300 H          1 <1>        0.000
     47 H7         -9.6560    2.1450   31.3080 H          1 <1>        0.000
     48 H8         -8.8080    3.1600   30.0930 H          1 <1>        0.000
     49 N1         -8.8160    1.3350   28.1170 N.4        1 <1>        1.220
     50 H1         -8.3982    0.4225   28.0231 H          1 <1>        0.000
     51 H2         -9.3592    1.5431   27.2937 H          1 <1>        0.000
     52 H4         -8.0899    2.0261   28.2230 H          1 <1>        0.000
@<TRIPOS>BOND
     1    2    1 2  
     2    1    3 am 
     3    3    4 1  
     4    5    6 1  
     5    5    7 1  
     6    3    5 1  
     7    8    9 1  
     8    8   12 1  
     9    9   10 2  
    10   10   11 1  
    11   11   12 2  
    12   10   13 1  
    13    5   11 1  
    14   14   15 2  
    15   14   16 1  
    16   14   17 1  
    17   16   18 1  
    18   18   19 1  
    19   18   20 1  
    20   17   21 1  
    21    1   17 1  
    22   22   23 1  
    23   23   24 ar 
    24   23   28 ar 
    25   28   27 ar 
    26   27   26 ar 
    27   26   25 ar 
    28   25   24 ar 
    29   22   29 1  
    30   22   30 1  
    31   24   31 1  
    32   25   32 1  
    33   26   33 1  
    34   27   34 1  
    35   28   35 1  
    36   18   22 1  
    37   36   37 am 
    38   37   38 2  
    39   36   39 1  
    40   36   40 1  
    41   39   41 1  
    42   39   42 1  
    43   17   39 1  
    44   44   43 1  
    45   43   45 1  
    46   43   46 1  
    47   44   47 1  
    48   44   48 1  
    49   37   44 1  
    50   49   50 1  
    51   49   51 1  
    52   49   52 1  
    53   43   49 1  
# Name:          No_7_144
# Creation time: Wed Mar 20 11:53:30 2024


@<TRIPOS>MOLECULE
000001_000004
   50    51     1     1     1
SMALL
USER_CHARGES


@<TRIPOS>ATOM
      1 C30        -7.8780   -2.2990   32.2090 C.2        1 <1>        0.060
      2 O32        -7.9100   -2.7650   31.0800 O.2        1 <1>        0.520
      3 N4         -8.9360   -2.3980   33.0750 N.am       1 <1>        0.500
      4 H          -8.8660   -2.0071   33.9928 H          1 <1>        0.000
      5 C1        -10.1560   -3.0670   32.6670 C.3        1 <1>        0.020
      6 H1         -9.9791   -3.6127   31.7285 H          1 <1>        0.000
      7 H3        -10.9499   -2.3211   32.5140 H          1 <1>        0.000
      8 O1        -10.9790   -5.7490   34.8830 O.3        1 <1>        0.030
      9 N1        -11.4350   -4.6910   35.6990 N.2        1 <1>        0.230
     10 C1        -11.1900   -3.6610   35.0030 C.2        1 <1>        0.040
     11 C2        -10.5780   -4.0340   33.7350 C.2        1 <1>        0.070
     12 N2        -10.4480   -5.2920   33.6570 N.2        1 <1>        0.040
     13 H1        -11.4090   -2.6400   35.3120 H          1 <1>        0.000
     14 C          -5.4810   -2.4590   32.7300 C.2        1 <1>        0.020
     15 O          -4.4550   -2.1400   32.1470 O.2        1 <1>        0.060
     16 O          -5.6320   -3.6100   33.4030 O.3        1 <1>        0.170
     17 C4         -6.6870   -1.5580   32.7430 C.3        1 <1>        0.050
     18 C5         -4.4680   -4.4580   33.3820 C.3        1 <1>        0.030
     19 H2         -4.7029   -5.3647   33.9588 H          1 <1>        0.000
     20 H3         -3.6053   -3.9622   33.8509 H          1 <1>        0.000
     21 H4         -6.8961   -1.2379   33.7744 H          1 <1>        0.000
     22 C1         -4.1070   -4.8760   31.9450 C.3        1 <1>        0.010
     23 C2         -3.3770   -6.2140   31.9730 C.ar       1 <1>        0.140
     24 C3         -2.0770   -6.3120   31.4660 C.ar       1 <1>        0.170
     25 C4         -1.4070   -7.5390   31.4920 C.ar       1 <1>        0.170
     26 C5         -2.0370   -8.6680   32.0240 C.ar       1 <1>        0.210
     27 C6         -3.3360   -8.5710   32.5300 C.ar       1 <1>        0.200
     28 C7         -4.0060   -7.3440   32.5050 C.ar       1 <1>        0.220
     29 H1         -3.4567   -4.1127   31.4928 H          1 <1>        0.000
     30 H3         -5.0266   -4.9730   31.3493 H          1 <1>        0.000
     31 H4         -1.5889   -5.4367   31.0529 H          1 <1>        0.000
     32 H5         -0.3997   -7.6150   31.0989 H          1 <1>        0.000
     33 H6         -1.5170   -9.6189   32.0440 H          1 <1>        0.000
     34 H7         -3.8241   -9.4463   32.9431 H          1 <1>        0.000
     35 H8         -5.0135   -7.2680   32.8978 H          1 <1>        0.000
     36 N          -7.7090    0.3430   31.5320 N.am       1 <1>        0.020
     37 C          -7.7050    1.4600   30.7710 C.2        1 <1>        0.030
     38 O          -6.6860    1.9730   30.3370 O.2        1 <1>        0.070
     39 C4         -6.4490   -0.3100   31.8730 C.3        1 <1>       -0.000
     40 H2         -8.5672   -0.0451   31.8681 H          1 <1>        0.000
     41 H3         -5.8043    0.3836   32.4327 H          1 <1>        0.000
     42 H4         -5.9258   -0.6211   30.9567 H          1 <1>        0.000
     43 C1         -9.6880    1.3560   29.3000 C.3        1 <1>        0.030
     44 C2         -9.0030    2.1290   30.4230 C.3        1 <1>        0.010
     45 H3        -10.6394    1.8457   29.0452 H          1 <1>        0.000
     46 H5         -9.8840    0.3251   29.6300 H          1 <1>        0.000
     47 H7         -9.6560    2.1450   31.3080 H          1 <1>        0.000
     48 H8         -8.8080    3.1600   30.0930 H          1 <1>        0.000
     49 O1         -8.8390    1.3360   28.1490 O.3        1 <1>        1.060
     50 H1         -7.9698    1.1750   28.4971 H          1 <1>        0.000
@<TRIPOS>BOND
     1    2    1 2  
     2    1    3 am 
     3    3    4 1  
     4    5    6 1  
     5    5    7 1  
     6    3    5 1  
     7    8    9 1  
     8    8   12 1  
     9    9   10 2  
    10   10   11 1  
    11   11   12 2  
    12   10   13 1  
    13    5   11 1  
    14   14   15 2  
    15   14   16 1  
    16   14   17 1  
    17   16   18 1  
    18   18   19 1  
    19   18   20 1  
    20   17   21 1  
    21    1   17 1  
    22   22   23 1  
    23   23   24 ar 
    24   23   28 ar 
    25   28   27 ar 
    26   27   26 ar 
    27   26   25 ar 
    28   25   24 ar 
    29   22   29 1  
    30   22   30 1  
    31   24   31 1  
    32   25   32 1  
    33   26   33 1  
    34   27   34 1  
    35   28   35 1  
    36   18   22 1  
    37   36   37 am 
    38   37   38 2  
    39   36   39 1  
    40   36   40 1  
    41   39   41 1  
    42   39   42 1  
    43   17   39 1  
    44   44   43 1  
    45   43   45 1  
    46   43   46 1  
    47   44   47 1  
    48   44   48 1  
    49   37   44 1  
    50   49   50 1  
    51   43   49 1  
# Name:          No_7_145
# Creation time: Wed Mar 20 11:53:30 2024


@<TRIPOS>MOLECULE
000001_000005
   50    51     1     1     1
SMALL
USER_CHARGES


@<TRIPOS>ATOM
      1 C30        -7.8780   -2.2990   32.2090 C.2        1 <1>        0.060
      2 O32        -7.9100   -2.7650   31.0800 O.2        1 <1>        0.520
      3 N4         -8.9360   -2.3980   33.0750 N.am       1 <1>        0.500
      4 H          -8.8660   -2.0071   33.9928 H          1 <1>        0.000
      5 C1        -10.1560   -3.0670   32.6670 C.3        1 <1>        0.020
      6 H1         -9.9791   -3.6127   31.7285 H          1 <1>        0.000
      7 H3        -10.9499   -2.3211   32.5140 H          1 <1>        0.000
      8 O1        -10.9790   -5.7490   34.8830 O.3        1 <1>        0.030
      9 N1        -11.4350   -4.6910   35.6990 N.2        1 <1>        0.230
     10 C1        -11.1900   -3.6610   35.0030 C.2        1 <1>        0.040
     11 C2        -10.5780   -4.0340   33.7350 C.2        1 <1>        0.070
     12 N2        -10.4480   -5.2920   33.6570 N.2        1 <1>        0.040
     13 H1        -11.4090   -2.6400   35.3120 H          1 <1>        0.000
     14 C          -5.4810   -2.4590   32.7300 C.2        1 <1>        0.020
     15 O          -4.4550   -2.1400   32.1470 O.2        1 <1>        0.060
     16 O          -5.6320   -3.6100   33.4030 O.3        1 <1>        0.170
     17 C4         -6.6870   -1.5580   32.7430 C.3        1 <1>        0.050
     18 C5         -4.4680   -4.4580   33.3820 C.3        1 <1>        0.030
     19 H2         -4.7029   -5.3647   33.9588 H          1 <1>        0.000
     20 H3         -3.6053   -3.9622   33.8509 H          1 <1>        0.000
     21 H4         -6.8961   -1.2379   33.7744 H          1 <1>        0.000
     22 C1         -4.1070   -4.8760   31.9450 C.3        1 <1>        0.010
     23 C2         -3.3770   -6.2140   31.9730 C.ar       1 <1>        0.140
     24 C3         -2.0770   -6.3120   31.4660 C.ar       1 <1>        0.170
     25 C4         -1.4070   -7.5390   31.4920 C.ar       1 <1>        0.170
     26 C5         -2.0370   -8.6680   32.0240 C.ar       1 <1>        0.210
     27 C6         -3.3360   -8.5710   32.5300 C.ar       1 <1>        0.200
     28 C7         -4.0060   -7.3440   32.5050 C.ar       1 <1>        0.220
     29 H1         -3.4567   -4.1127   31.4928 H          1 <1>        0.000
     30 H3         -5.0266   -4.9730   31.3493 H          1 <1>        0.000
     31 H4         -1.5889   -5.4367   31.0529 H          1 <1>        0.000
     32 H5         -0.3997   -7.6150   31.0989 H          1 <1>        0.000
     33 H6         -1.5170   -9.6189   32.0440 H          1 <1>        0.000
     34 H7         -3.8241   -9.4463   32.9431 H          1 <1>        0.000
     35 H8         -5.0135   -7.2680   32.8978 H          1 <1>        0.000
     36 N          -7.7090    0.3430   31.5320 N.am       1 <1>        0.020
     37 C          -7.7050    1.4600   30.7710 C.2        1 <1>        0.030
     38 O          -6.6860    1.9730   30.3370 O.2        1 <1>        0.070
     39 C4         -6.4490   -0.3100   31.8730 C.3        1 <1>       -0.000
     40 H2         -8.5672   -0.0451   31.8681 H          1 <1>        0.000
     41 H3         -5.8043    0.3836   32.4327 H          1 <1>        0.000
     42 H4         -5.9258   -0.6211   30.9567 H          1 <1>        0.000
     43 C1         -9.6880    1.3560   29.3000 C.3        1 <1>        0.030
     44 C2         -9.0030    2.1290   30.4230 C.3        1 <1>        0.010
     45 H3        -10.6394    1.8457   29.0452 H          1 <1>        0.000
     46 H5         -9.8840    0.3251   29.6300 H          1 <1>        0.000
     47 H7         -9.6560    2.1450   31.3080 H          1 <1>        0.000
     48 H8         -8.8080    3.1600   30.0930 H          1 <1>        0.000
     49 O1         -8.8390    1.3360   28.1490 O.3        1 <1>        1.060
     50 H1         -8.1608    0.7068   28.3651 H          1 <1>        0.000
@<TRIPOS>BOND
     1    2    1 2  
     2    1    3 am 
     3    3    4 1  
     4    5    6 1  
     5    5    7 1  
     6    3    5 1  
     7    8    9 1  
     8    8   12 1  
     9    9   10 2  
    10   10   11 1  
    11   11   12 2  
    12   10   13 1  
    13    5   11 1  
    14   14   15 2  
    15   14   16 1  
    16   14   17 1  
    17   16   18 1  
    18   18   19 1  
    19   18   20 1  
    20   17   21 1  
    21    1   17 1  
    22   22   23 1  
    23   23   24 ar 
    24   23   28 ar 
    25   28   27 ar 
    26   27   26 ar 
    27   26   25 ar 
    28   25   24 ar 
    29   22   29 1  
    30   22   30 1  
    31   24   31 1  
    32   25   32 1  
    33   26   33 1  
    34   27   34 1  
    35   28   35 1  
    36   18   22 1  
    37   36   37 am 
    38   37   38 2  
    39   36   39 1  
    40   36   40 1  
    41   39   41 1  
    42   39   42 1  
    43   17   39 1  
    44   44   43 1  
    45   43   45 1  
    46   43   46 1  
    47   44   47 1  
    48   44   48 1  
    49   37   44 1  
    50   49   50 1  
    51   43   49 1  
# Name:          No_7_146
# Creation time: Wed Mar 20 11:53:30 2024


@<TRIPOS>MOLECULE
000001_000006
   50    51     1     1     1
SMALL
USER_CHARGES


@<TRIPOS>ATOM
      1 C30        -7.8780   -2.2990   32.2090 C.2        1 <1>        0.060
      2 O32        -7.9100   -2.7650   31.0800 O.2        1 <1>        0.520
      3 N4         -8.9360   -2.3980   33.0750 N.am       1 <1>        0.500
      4 H          -8.8660   -2.0071   33.9928 H          1 <1>        0.000
      5 C1        -10.1560   -3.0670   32.6670 C.3        1 <1>        0.020
      6 H1         -9.9791   -3.6127   31.7285 H          1 <1>        0.000
      7 H3        -10.9499   -2.3211   32.5140 H          1 <1>        0.000
      8 O1        -10.9790   -5.7490   34.8830 O.3        1 <1>        0.030
      9 N1        -11.4350   -4.6910   35.6990 N.2        1 <1>        0.230
     10 C1        -11.1900   -3.6610   35.0030 C.2        1 <1>        0.040
     11 C2        -10.5780   -4.0340   33.7350 C.2        1 <1>        0.070
     12 N2        -10.4480   -5.2920   33.6570 N.2        1 <1>        0.040
     13 H1        -11.4090   -2.6400   35.3120 H          1 <1>        0.000
     14 C          -5.4810   -2.4590   32.7300 C.2        1 <1>        0.020
     15 O          -4.4550   -2.1400   32.1470 O.2        1 <1>        0.060
     16 O          -5.6320   -3.6100   33.4030 O.3        1 <1>        0.170
     17 C4         -6.6870   -1.5580   32.7430 C.3        1 <1>        0.050
     18 C5         -4.4680   -4.4580   33.3820 C.3        1 <1>        0.030
     19 H2         -4.7029   -5.3647   33.9588 H          1 <1>        0.000
     20 H3         -3.6053   -3.9622   33.8509 H          1 <1>        0.000
     21 H4         -6.8961   -1.2379   33.7744 H          1 <1>        0.000
     22 C1         -4.1070   -4.8760   31.9450 C.3        1 <1>        0.010
     23 C2         -3.3770   -6.2140   31.9730 C.ar       1 <1>        0.140
     24 C3         -2.0770   -6.3120   31.4660 C.ar       1 <1>        0.170
     25 C4         -1.4070   -7.5390   31.4920 C.ar       1 <1>        0.170
     26 C5         -2.0370   -8.6680   32.0240 C.ar       1 <1>        0.210
     27 C6         -3.3360   -8.5710   32.5300 C.ar       1 <1>        0.200
     28 C7         -4.0060   -7.3440   32.5050 C.ar       1 <1>        0.220
     29 H1         -3.4567   -4.1127   31.4928 H          1 <1>        0.000
     30 H3         -5.0266   -4.9730   31.3493 H          1 <1>        0.000
     31 H4         -1.5889   -5.4367   31.0529 H          1 <1>        0.000
     32 H5         -0.3997   -7.6150   31.0989 H          1 <1>        0.000
     33 H6         -1.5170   -9.6189   32.0440 H          1 <1>        0.000
     34 H7         -3.8241   -9.4463   32.9431 H          1 <1>        0.000
     35 H8         -5.0135   -7.2680   32.8978 H          1 <1>        0.000
     36 N          -7.7090    0.3430   31.5320 N.am       1 <1>        0.020
     37 C          -7.7050    1.4600   30.7710 C.2        1 <1>        0.030
     38 O          -6.6860    1.9730   30.3370 O.2        1 <1>        0.070
     39 C4         -6.4490   -0.3100   31.8730 C.3        1 <1>       -0.000
     40 H2         -8.5672   -0.0451   31.8681 H          1 <1>        0.000
     41 H3         -5.8043    0.3836   32.4327 H          1 <1>        0.000
     42 H4         -5.9258   -0.6211   30.9567 H          1 <1>        0.000
     43 C1         -9.6880    1.3560   29.3000 C.3        1 <1>        0.030
     44 C2         -9.0030    2.1290   30.4230 C.3        1 <1>        0.010
     45 H3        -10.6394    1.8457   29.0452 H          1 <1>        0.000
     46 H5         -9.8840    0.3251   29.6300 H          1 <1>        0.000
     47 H7         -9.6560    2.1450   31.3080 H          1 <1>        0.000
     48 H8         -8.8080    3.1600   30.0930 H          1 <1>        0.000
     49 O1         -8.8390    1.3360   28.1490 O.3        1 <1>        1.060
     50 H1         -9.1788    0.6265   27.6164 H          1 <1>        0.000
@<TRIPOS>BOND
     1    2    1 2  
     2    1    3 am 
     3    3    4 1  
     4    5    6 1  
     5    5    7 1  
     6    3    5 1  
     7    8    9 1  
     8    8   12 1  
     9    9   10 2  
    10   10   11 1  
    11   11   12 2  
    12   10   13 1  
    13    5   11 1  
    14   14   15 2  
    15   14   16 1  
    16   14   17 1  
    17   16   18 1  
    18   18   19 1  
    19   18   20 1  
    20   17   21 1  
    21    1   17 1  
    22   22   23 1  
    23   23   24 ar 
    24   23   28 ar 
    25   28   27 ar 
    26   27   26 ar 
    27   26   25 ar 
    28   25   24 ar 
    29   22   29 1  
    30   22   30 1  
    31   24   31 1  
    32   25   32 1  
    33   26   33 1  
    34   27   34 1  
    35   28   35 1  
    36   18   22 1  
    37   36   37 am 
    38   37   38 2  
    39   36   39 1  
    40   36   40 1  
    41   39   41 1  
    42   39   42 1  
    43   17   39 1  
    44   44   43 1  
    45   43   45 1  
    46   43   46 1  
    47   44   47 1  
    48   44   48 1  
    49   37   44 1  
    50   49   50 1  
    51   43   49 1  
# Name:          No_7_147
# Creation time: Wed Mar 20 11:53:30 2024


@<TRIPOS>MOLECULE
000001_000007
   50    51     1     1     1
SMALL
USER_CHARGES


@<TRIPOS>ATOM
      1 C30        -7.8780   -2.2990   32.2090 C.2        1 <1>        0.060
      2 O32        -7.9100   -2.7650   31.0800 O.2        1 <1>        0.520
      3 N4         -8.9360   -2.3980   33.0750 N.am       1 <1>        0.500
      4 H          -8.8660   -2.0071   33.9928 H          1 <1>        0.000
      5 C1        -10.1560   -3.0670   32.6670 C.3        1 <1>        0.020
      6 H1         -9.9791   -3.6127   31.7285 H          1 <1>        0.000
      7 H3        -10.9499   -2.3211   32.5140 H          1 <1>        0.000
      8 O1        -10.9790   -5.7490   34.8830 O.3        1 <1>        0.030
      9 N1        -11.4350   -4.6910   35.6990 N.2        1 <1>        0.230
     10 C1        -11.1900   -3.6610   35.0030 C.2        1 <1>        0.040
     11 C2        -10.5780   -4.0340   33.7350 C.2        1 <1>        0.070
     12 N2        -10.4480   -5.2920   33.6570 N.2        1 <1>        0.040
     13 H1        -11.4090   -2.6400   35.3120 H          1 <1>        0.000
     14 C          -5.4810   -2.4590   32.7300 C.2        1 <1>        0.020
     15 O          -4.4550   -2.1400   32.1470 O.2        1 <1>        0.060
     16 O          -5.6320   -3.6100   33.4030 O.3        1 <1>        0.170
     17 C4         -6.6870   -1.5580   32.7430 C.3        1 <1>        0.050
     18 C5         -4.4680   -4.4580   33.3820 C.3        1 <1>        0.030
     19 H2         -4.7029   -5.3647   33.9588 H          1 <1>        0.000
     20 H3         -3.6053   -3.9622   33.8509 H          1 <1>        0.000
     21 H4         -6.8961   -1.2379   33.7744 H          1 <1>        0.000
     22 C1         -4.1070   -4.8760   31.9450 C.3        1 <1>        0.010
     23 C2         -3.3770   -6.2140   31.9730 C.ar       1 <1>        0.140
     24 C3         -2.0770   -6.3120   31.4660 C.ar       1 <1>        0.170
     25 C4         -1.4070   -7.5390   31.4920 C.ar       1 <1>        0.170
     26 C5         -2.0370   -8.6680   32.0240 C.ar       1 <1>        0.210
     27 C6         -3.3360   -8.5710   32.5300 C.ar       1 <1>        0.200
     28 C7         -4.0060   -7.3440   32.5050 C.ar       1 <1>        0.220
     29 H1         -3.4567   -4.1127   31.4928 H          1 <1>        0.000
     30 H3         -5.0266   -4.9730   31.3493 H          1 <1>        0.000
     31 H4         -1.5889   -5.4367   31.0529 H          1 <1>        0.000
     32 H5         -0.3997   -7.6150   31.0989 H          1 <1>        0.000
     33 H6         -1.5170   -9.6189   32.0440 H          1 <1>        0.000
     34 H7         -3.8241   -9.4463   32.9431 H          1 <1>        0.000
     35 H8         -5.0135   -7.2680   32.8978 H          1 <1>        0.000
     36 N          -7.7090    0.3430   31.5320 N.am       1 <1>        0.020
     37 C          -7.7050    1.4600   30.7710 C.2        1 <1>        0.030
     38 O          -6.6860    1.9730   30.3370 O.2        1 <1>        0.070
     39 C4         -6.4490   -0.3100   31.8730 C.3        1 <1>       -0.000
     40 H2         -8.5672   -0.0451   31.8681 H          1 <1>        0.000
     41 H3         -5.8043    0.3836   32.4327 H          1 <1>        0.000
     42 H4         -5.9258   -0.6211   30.9567 H          1 <1>        0.000
     43 C1         -9.6880    1.3560   29.3000 C.3        1 <1>        0.030
     44 C2         -9.0030    2.1290   30.4230 C.3        1 <1>        0.010
     45 H3        -10.6394    1.8457   29.0452 H          1 <1>        0.000
     46 H5         -9.8840    0.3251   29.6300 H          1 <1>        0.000
     47 H7         -9.6560    2.1450   31.3080 H          1 <1>        0.000
     48 H8         -8.8080    3.1600   30.0930 H          1 <1>        0.000
     49 O1         -8.8390    1.3360   28.1490 O.3        1 <1>        1.060
     50 H1         -9.4077    1.0612   27.4394 H          1 <1>        0.000
@<TRIPOS>BOND
     1    2    1 2  
     2    1    3 am 
     3    3    4 1  
     4    5    6 1  
     5    5    7 1  
     6    3    5 1  
     7    8    9 1  
     8    8   12 1  
     9    9   10 2  
    10   10   11 1  
    11   11   12 2  
    12   10   13 1  
    13    5   11 1  
    14   14   15 2  
    15   14   16 1  
    16   14   17 1  
    17   16   18 1  
    18   18   19 1  
    19   18   20 1  
    20   17   21 1  
    21    1   17 1  
    22   22   23 1  
    23   23   24 ar 
    24   23   28 ar 
    25   28   27 ar 
    26   27   26 ar 
    27   26   25 ar 
    28   25   24 ar 
    29   22   29 1  
    30   22   30 1  
    31   24   31 1  
    32   25   32 1  
    33   26   33 1  
    34   27   34 1  
    35   28   35 1  
    36   18   22 1  
    37   36   37 am 
    38   37   38 2  
    39   36   39 1  
    40   36   40 1  
    41   39   41 1  
    42   39   42 1  
    43   17   39 1  
    44   44   43 1  
    45   43   45 1  
    46   43   46 1  
    47   44   47 1  
    48   44   48 1  
    49   37   44 1  
    50   49   50 1  
    51   43   49 1  
# Name:          No_7_148
# Creation time: Wed Mar 20 11:53:30 2024


@<TRIPOS>MOLECULE
000001_000008
   50    51     1     1     1
SMALL
USER_CHARGES


@<TRIPOS>ATOM
      1 C30        -7.8780   -2.2990   32.2090 C.2        1 <1>        0.060
      2 O32        -7.9100   -2.7650   31.0800 O.2        1 <1>        0.520
      3 N4         -8.9360   -2.3980   33.0750 N.am       1 <1>        0.500
      4 H          -8.8660   -2.0071   33.9928 H          1 <1>        0.000
      5 C1        -10.1560   -3.0670   32.6670 C.3        1 <1>        0.020
      6 H1         -9.9791   -3.6127   31.7285 H          1 <1>        0.000
      7 H3        -10.9499   -2.3211   32.5140 H          1 <1>        0.000
      8 O1        -10.9790   -5.7490   34.8830 O.3        1 <1>        0.030
      9 N1        -11.4350   -4.6910   35.6990 N.2        1 <1>        0.230
     10 C1        -11.1900   -3.6610   35.0030 C.2        1 <1>        0.040
     11 C2        -10.5780   -4.0340   33.7350 C.2        1 <1>        0.070
     12 N2        -10.4480   -5.2920   33.6570 N.2        1 <1>        0.040
     13 H1        -11.4090   -2.6400   35.3120 H          1 <1>        0.000
     14 C          -5.4810   -2.4590   32.7300 C.2        1 <1>        0.020
     15 O          -4.4550   -2.1400   32.1470 O.2        1 <1>        0.060
     16 O          -5.6320   -3.6100   33.4030 O.3        1 <1>        0.170
     17 C4         -6.6870   -1.5580   32.7430 C.3        1 <1>        0.050
     18 C5         -4.4680   -4.4580   33.3820 C.3        1 <1>        0.030
     19 H2         -4.7029   -5.3647   33.9588 H          1 <1>        0.000
     20 H3         -3.6053   -3.9622   33.8509 H          1 <1>        0.000
     21 H4         -6.8961   -1.2379   33.7744 H          1 <1>        0.000
     22 C1         -4.1070   -4.8760   31.9450 C.3        1 <1>        0.010
     23 C2         -3.3770   -6.2140   31.9730 C.ar       1 <1>        0.140
     24 C3         -2.0770   -6.3120   31.4660 C.ar       1 <1>        0.170
     25 C4         -1.4070   -7.5390   31.4920 C.ar       1 <1>        0.170
     26 C5         -2.0370   -8.6680   32.0240 C.ar       1 <1>        0.210
     27 C6         -3.3360   -8.5710   32.5300 C.ar       1 <1>        0.200
     28 C7         -4.0060   -7.3440   32.5050 C.ar       1 <1>        0.220
     29 H1         -3.4567   -4.1127   31.4928 H          1 <1>        0.000
     30 H3         -5.0266   -4.9730   31.3493 H          1 <1>        0.000
     31 H4         -1.5889   -5.4367   31.0529 H          1 <1>        0.000
     32 H5         -0.3997   -7.6150   31.0989 H          1 <1>        0.000
     33 H6         -1.5170   -9.6189   32.0440 H          1 <1>        0.000
     34 H7         -3.8241   -9.4463   32.9431 H          1 <1>        0.000
     35 H8         -5.0135   -7.2680   32.8978 H          1 <1>        0.000
     36 N          -7.7090    0.3430   31.5320 N.am       1 <1>        0.020
     37 C          -7.7050    1.4600   30.7710 C.2        1 <1>        0.030
     38 O          -6.6860    1.9730   30.3370 O.2        1 <1>        0.070
     39 C4         -6.4490   -0.3100   31.8730 C.3        1 <1>       -0.000
     40 H2         -8.5672   -0.0451   31.8681 H          1 <1>        0.000
     41 H3         -5.8043    0.3836   32.4327 H          1 <1>        0.000
     42 H4         -5.9258   -0.6211   30.9567 H          1 <1>        0.000
     43 C1         -9.6880    1.3560   29.3000 C.3        1 <1>        0.030
     44 C2         -9.0030    2.1290   30.4230 C.3        1 <1>        0.010
     45 H3        -10.6394    1.8457   29.0452 H          1 <1>        0.000
     46 H5         -9.8840    0.3251   29.6300 H          1 <1>        0.000
     47 H7         -9.6560    2.1450   31.3080 H          1 <1>        0.000
     48 H8         -8.8080    3.1600   30.0930 H          1 <1>        0.000
     49 O1         -8.8390    1.3360   28.1490 O.3        1 <1>        1.060
     50 H1         -8.9460    2.1961   27.7600 H          1 <1>        0.000
@<TRIPOS>BOND
     1    2    1 2  
     2    1    3 am 
     3    3    4 1  
     4    5    6 1  
     5    5    7 1  
     6    3    5 1  
     7    8    9 1  
     8    8   12 1  
     9    9   10 2  
    10   10   11 1  
    11   11   12 2  
    12   10   13 1  
    13    5   11 1  
    14   14   15 2  
    15   14   16 1  
    16   14   17 1  
    17   16   18 1  
    18   18   19 1  
    19   18   20 1  
    20   17   21 1  
    21    1   17 1  
    22   22   23 1  
    23   23   24 ar 
    24   23   28 ar 
    25   28   27 ar 
    26   27   26 ar 
    27   26   25 ar 
    28   25   24 ar 
    29   22   29 1  
    30   22   30 1  
    31   24   31 1  
    32   25   32 1  
    33   26   33 1  
    34   27   34 1  
    35   28   35 1  
    36   18   22 1  
    37   36   37 am 
    38   37   38 2  
    39   36   39 1  
    40   36   40 1  
    41   39   41 1  
    42   39   42 1  
    43   17   39 1  
    44   44   43 1  
    45   43   45 1  
    46   43   46 1  
    47   44   47 1  
    48   44   48 1  
    49   37   44 1  
    50   49   50 1  
    51   43   49 1  
# Name:          No_7_149
# Creation time: Wed Mar 20 11:53:30 2024


@<TRIPOS>MOLECULE
000001_000009
   50    51     1     1     1
SMALL
USER_CHARGES


@<TRIPOS>ATOM
      1 C30        -7.8780   -2.2990   32.2090 C.2        1 <1>        0.060
      2 O32        -7.9100   -2.7650   31.0800 O.2        1 <1>        0.520
      3 N4         -8.9360   -2.3980   33.0750 N.am       1 <1>        0.500
      4 H          -8.8660   -2.0071   33.9928 H          1 <1>        0.000
      5 C1        -10.1560   -3.0670   32.6670 C.3        1 <1>        0.020
      6 H1         -9.9791   -3.6127   31.7285 H          1 <1>        0.000
      7 H3        -10.9499   -2.3211   32.5140 H          1 <1>        0.000
      8 O1        -10.9790   -5.7490   34.8830 O.3        1 <1>        0.030
      9 N1        -11.4350   -4.6910   35.6990 N.2        1 <1>        0.230
     10 C1        -11.1900   -3.6610   35.0030 C.2        1 <1>        0.040
     11 C2        -10.5780   -4.0340   33.7350 C.2        1 <1>        0.070
     12 N2        -10.4480   -5.2920   33.6570 N.2        1 <1>        0.040
     13 H1        -11.4090   -2.6400   35.3120 H          1 <1>        0.000
     14 C          -5.4810   -2.4590   32.7300 C.2        1 <1>        0.020
     15 O          -4.4550   -2.1400   32.1470 O.2        1 <1>        0.060
     16 O          -5.6320   -3.6100   33.4030 O.3        1 <1>        0.170
     17 C4         -6.6870   -1.5580   32.7430 C.3        1 <1>        0.050
     18 C5         -4.4680   -4.4580   33.3820 C.3        1 <1>        0.030
     19 H2         -4.7029   -5.3647   33.9588 H          1 <1>        0.000
     20 H3         -3.6053   -3.9622   33.8509 H          1 <1>        0.000
     21 H4         -6.8961   -1.2379   33.7744 H          1 <1>        0.000
     22 C1         -4.1070   -4.8760   31.9450 C.3        1 <1>        0.010
     23 C2         -3.3770   -6.2140   31.9730 C.ar       1 <1>        0.140
     24 C3         -2.0770   -6.3120   31.4660 C.ar       1 <1>        0.170
     25 C4         -1.4070   -7.5390   31.4920 C.ar       1 <1>        0.170
     26 C5         -2.0370   -8.6680   32.0240 C.ar       1 <1>        0.210
     27 C6         -3.3360   -8.5710   32.5300 C.ar       1 <1>        0.200
     28 C7         -4.0060   -7.3440   32.5050 C.ar       1 <1>        0.220
     29 H1         -3.4567   -4.1127   31.4928 H          1 <1>        0.000
     30 H3         -5.0266   -4.9730   31.3493 H          1 <1>        0.000
     31 H4         -1.5889   -5.4367   31.0529 H          1 <1>        0.000
     32 H5         -0.3997   -7.6150   31.0989 H          1 <1>        0.000
     33 H6         -1.5170   -9.6189   32.0440 H          1 <1>        0.000
     34 H7         -3.8241   -9.4463   32.9431 H          1 <1>        0.000
     35 H8         -5.0135   -7.2680   32.8978 H          1 <1>        0.000
     36 N          -7.7090    0.3430   31.5320 N.am       1 <1>        0.020
     37 C          -7.7050    1.4600   30.7710 C.2        1 <1>        0.030
     38 O          -6.6860    1.9730   30.3370 O.2        1 <1>        0.070
     39 C4         -6.4490   -0.3100   31.8730 C.3        1 <1>       -0.000
     40 H2         -8.5672   -0.0451   31.8681 H          1 <1>        0.000
     41 H3         -5.8043    0.3836   32.4327 H          1 <1>        0.000
     42 H4         -5.9258   -0.6211   30.9567 H          1 <1>        0.000
     43 C1         -9.6880    1.3560   29.3000 C.3        1 <1>        0.030
     44 C2         -9.0030    2.1290   30.4230 C.3        1 <1>        0.010
     45 H3        -10.6394    1.8457   29.0452 H          1 <1>        0.000
     46 H5         -9.8840    0.3251   29.6300 H          1 <1>        0.000
     47 H7         -9.6560    2.1450   31.3080 H          1 <1>        0.000
     48 H8         -8.8080    3.1600   30.0930 H          1 <1>        0.000
     49 O1         -8.8390    1.3360   28.1490 O.3        1 <1>        1.060
     50 H1         -8.5259    2.2293   28.0690 H          1 <1>        0.000
@<TRIPOS>BOND
     1    2    1 2  
     2    1    3 am 
     3    3    4 1  
     4    5    6 1  
     5    5    7 1  
     6    3    5 1  
     7    8    9 1  
     8    8   12 1  
     9    9   10 2  
    10   10   11 1  
    11   11   12 2  
    12   10   13 1  
    13    5   11 1  
    14   14   15 2  
    15   14   16 1  
    16   14   17 1  
    17   16   18 1  
    18   18   19 1  
    19   18   20 1  
    20   17   21 1  
    21    1   17 1  
    22   22   23 1  
    23   23   24 ar 
    24   23   28 ar 
    25   28   27 ar 
    26   27   26 ar 
    27   26   25 ar 
    28   25   24 ar 
    29   22   29 1  
    30   22   30 1  
    31   24   31 1  
    32   25   32 1  
    33   26   33 1  
    34   27   34 1  
    35   28   35 1  
    36   18   22 1  
    37   36   37 am 
    38   37   38 2  
    39   36   39 1  
    40   36   40 1  
    41   39   41 1  
    42   39   42 1  
    43   17   39 1  
    44   44   43 1  
    45   43   45 1  
    46   43   46 1  
    47   44   47 1  
    48   44   48 1  
    49   37   44 1  
    50   49   50 1  
    51   43   49 1  
# Name:          No_7_19
# Creation time: Wed Mar 20 11:53:30 2024


@<TRIPOS>MOLECULE
000001_000010
   42    43     1     1     1
SMALL
USER_CHARGES


@<TRIPOS>ATOM
      1 C30        -7.8780   -2.2990   32.2090 C.2        1 <1>        0.060
      2 O32        -7.9100   -2.7650   31.0800 O.2        1 <1>        0.520
      3 N4         -8.9360   -2.3980   33.0750 N.am       1 <1>        0.500
      4 H          -8.8660   -2.0071   33.9928 H          1 <1>        0.000
      5 C1        -10.1560   -3.0670   32.6670 C.3        1 <1>        0.020
      6 H1         -9.9791   -3.6127   31.7285 H          1 <1>        0.000
      7 H3        -10.9499   -2.3211   32.5140 H          1 <1>        0.000
      8 O1        -10.9790   -5.7490   34.8830 O.3        1 <1>        0.030
      9 N1        -11.4350   -4.6910   35.6990 N.2        1 <1>        0.230
     10 C1        -11.1900   -3.6610   35.0030 C.2        1 <1>        0.040
     11 C2        -10.5780   -4.0340   33.7350 C.2        1 <1>        0.070
     12 N2        -10.4480   -5.2920   33.6570 N.2        1 <1>        0.040
     13 H1        -11.4090   -2.6400   35.3120 H          1 <1>        0.000
     14 C          -5.4810   -2.4590   32.7300 C.2        1 <1>        0.020
     15 O          -4.4550   -2.1400   32.1470 O.2        1 <1>        0.060
     16 O          -5.6320   -3.6100   33.4030 O.3        1 <1>        0.170
     17 C4         -6.6870   -1.5580   32.7430 C.3        1 <1>        0.050
     18 C5         -4.4680   -4.4580   33.3820 C.3        1 <1>        0.030
     19 H2         -4.7029   -5.3647   33.9588 H          1 <1>        0.000
     20 H3         -3.6053   -3.9622   33.8509 H          1 <1>        0.000
     21 H4         -6.8961   -1.2379   33.7744 H          1 <1>        0.000
     22 C1         -4.1070   -4.8760   31.9450 C.3        1 <1>        0.010
     23 C2         -3.0720   -5.9950   31.9850 C.ar       1 <1>        0.130
     24 C3         -1.8230   -5.8140   31.3850 C.ar       1 <1>        0.160
     25 C4         -0.8740   -6.8400   31.4220 C.ar       1 <1>        0.170
     26 C5         -1.1740   -8.0470   32.0600 C.ar       1 <1>        0.190
     27 C6         -2.4240   -8.2290   32.6600 C.ar       1 <1>        0.200
     28 C7         -3.3730   -7.2030   32.6230 C.ar       1 <1>        0.200
     29 H1         -3.6921   -4.0121   31.4051 H          1 <1>        0.000
     30 H3         -5.0105   -5.2318   31.4283 H          1 <1>        0.000
     31 H4         -1.5899   -4.8777   30.8909 H          1 <1>        0.000
     32 H5          0.0950   -6.6990   30.9570 H          1 <1>        0.000
     33 H6         -0.4383   -8.8426   32.0880 H          1 <1>        0.000
     34 H7         -2.6571   -9.1653   33.1541 H          1 <1>        0.000
     35 H8         -4.3421   -7.3430   33.0881 H          1 <1>        0.000
     36 N1         -5.5450    0.6370   32.5640 N.4        1 <1>        0.540
     37 C1         -6.4490   -0.3100   31.8730 C.3        1 <1>        0.040
     38 H2         -5.3800    1.4608   32.0071 H          1 <1>        0.000
     39 H3         -5.9337    0.9398   33.4434 H          1 <1>        0.000
     40 H6         -6.0110   -0.6300   30.9160 H          1 <1>        0.000
     41 H7         -7.4207    0.1643   31.6709 H          1 <1>        0.000
     42 H1         -4.6494    0.2167   32.7571 H          1 <1>        0.000
@<TRIPOS>BOND
     1    2    1 2  
     2    1    3 am 
     3    3    4 1  
     4    5    6 1  
     5    5    7 1  
     6    3    5 1  
     7    8    9 1  
     8    8   12 1  
     9    9   10 2  
    10   10   11 1  
    11   11   12 2  
    12   10   13 1  
    13    5   11 1  
    14   14   15 2  
    15   14   16 1  
    16   14   17 1  
    17   16   18 1  
    18   18   19 1  
    19   18   20 1  
    20   17   21 1  
    21    1   17 1  
    22   22   23 1  
    23   23   24 ar 
    24   23   28 ar 
    25   28   27 ar 
    26   27   26 ar 
    27   26   25 ar 
    28   25   24 ar 
    29   22   29 1  
    30   22   30 1  
    31   24   31 1  
    32   25   32 1  
    33   26   33 1  
    34   27   34 1  
    35   28   35 1  
    36   18   22 1  
    37   36   37 1  
    38   36   38 1  
    39   36   39 1  
    40   37   40 1  
    41   37   41 1  
    42   36   42 1  
    43   17   37 1  
# Name:          No_6_94
# Creation time: Wed Mar 20 11:53:30 2024


@<TRIPOS>MOLECULE
000001_000011
   42    43     1     1     1
SMALL
USER_CHARGES


@<TRIPOS>ATOM
      1 C30        -7.8780   -2.2990   32.2090 C.2        1 <1>        0.060
      2 O32        -7.9100   -2.7650   31.0800 O.2        1 <1>        0.520
      3 N4         -8.9360   -2.3980   33.0750 N.am       1 <1>        0.500
      4 H          -8.8660   -2.0071   33.9928 H          1 <1>        0.000
      5 C1        -10.1560   -3.0670   32.6670 C.3        1 <1>        0.020
      6 H1         -9.9791   -3.6127   31.7285 H          1 <1>        0.000
      7 H3        -10.9499   -2.3211   32.5140 H          1 <1>        0.000
      8 O1        -10.9790   -5.7490   34.8830 O.3        1 <1>        0.030
      9 N1        -11.4350   -4.6910   35.6990 N.2        1 <1>        0.230
     10 C1        -11.1900   -3.6610   35.0030 C.2        1 <1>        0.040
     11 C2        -10.5780   -4.0340   33.7350 C.2        1 <1>        0.070
     12 N2        -10.4480   -5.2920   33.6570 N.2        1 <1>        0.040
     13 H1        -11.4090   -2.6400   35.3120 H          1 <1>        0.000
     14 C          -5.4810   -2.4590   32.7300 C.2        1 <1>        0.020
     15 O          -4.4550   -2.1400   32.1470 O.2        1 <1>        0.060
     16 O          -5.6320   -3.6100   33.4030 O.3        1 <1>        0.170
     17 C4         -6.6870   -1.5580   32.7430 C.3        1 <1>        0.050
     18 C5         -4.4680   -4.4580   33.3820 C.3        1 <1>        0.030
     19 H2         -4.7029   -5.3647   33.9588 H          1 <1>        0.000
     20 H3         -3.6053   -3.9622   33.8509 H          1 <1>        0.000
     21 H4         -6.8961   -1.2379   33.7744 H          1 <1>        0.000
     22 C1         -4.1070   -4.8760   31.9450 C.3        1 <1>        0.010
     23 C2         -3.0720   -5.9950   31.9850 C.ar       1 <1>        0.130
     24 C3         -1.8230   -5.8140   31.3850 C.ar       1 <1>        0.160
     25 C4         -0.8740   -6.8400   31.4220 C.ar       1 <1>        0.170
     26 C5         -1.1740   -8.0470   32.0600 C.ar       1 <1>        0.190
     27 C6         -2.4240   -8.2290   32.6600 C.ar       1 <1>        0.200
     28 C7         -3.3730   -7.2030   32.6230 C.ar       1 <1>        0.200
     29 H1         -3.6921   -4.0121   31.4051 H          1 <1>        0.000
     30 H3         -5.0105   -5.2318   31.4283 H          1 <1>        0.000
     31 H4         -1.5899   -4.8777   30.8909 H          1 <1>        0.000
     32 H5          0.0950   -6.6990   30.9570 H          1 <1>        0.000
     33 H6         -0.4383   -8.8426   32.0880 H          1 <1>        0.000
     34 H7         -2.6571   -9.1653   33.1541 H          1 <1>        0.000
     35 H8         -4.3421   -7.3430   33.0881 H          1 <1>        0.000
     36 N1         -5.5450    0.6370   32.5640 N.4        1 <1>        0.540
     37 C1         -6.4490   -0.3100   31.8730 C.3        1 <1>        0.040
     38 H2         -5.3800    1.4608   32.0071 H          1 <1>        0.000
     39 H3         -5.9337    0.9398   33.4434 H          1 <1>        0.000
     40 H6         -6.0110   -0.6300   30.9160 H          1 <1>        0.000
     41 H7         -7.4207    0.1643   31.6709 H          1 <1>        0.000
     42 H1         -4.6494    0.2167   32.7571 H          1 <1>        0.000
@<TRIPOS>BOND
     1    2    1 2  
     2    1    3 am 
     3    3    4 1  
     4    5    6 1  
     5    5    7 1  
     6    3    5 1  
     7    8    9 1  
     8    8   12 1  
     9    9   10 2  
    10   10   11 1  
    11   11   12 2  
    12   10   13 1  
    13    5   11 1  
    14   14   15 2  
    15   14   16 1  
    16   14   17 1  
    17   16   18 1  
    18   18   19 1  
    19   18   20 1  
    20   17   21 1  
    21    1   17 1  
    22   22   23 1  
    23   23   24 ar 
    24   23   28 ar 
    25   28   27 ar 
    26   27   26 ar 
    27   26   25 ar 
    28   25   24 ar 
    29   22   29 1  
    30   22   30 1  
    31   24   31 1  
    32   25   32 1  
    33   26   33 1  
    34   27   34 1  
    35   28   35 1  
    36   18   22 1  
    37   36   37 1  
    38   36   38 1  
    39   36   39 1  
    40   37   40 1  
    41   37   41 1  
    42   36   42 1  
    43   17   37 1  

# Name:          No_7_21
# Creation time: Wed Mar 20 12:02:12 2024


@<TRIPOS>MOLECULE
000001_000001
   41    42     1     1     1
SMALL
USER_CHARGES


@<TRIPOS>ATOM
      1 C30        -7.8780   -2.2990   32.2090 C.2        1 <1>        0.060
      2 O32        -7.9100   -2.7650   31.0800 O.2        1 <1>        0.520
      3 N4         -8.9360   -2.3980   33.0750 N.am       1 <1>        0.500
      4 H          -8.8660   -2.0071   33.9928 H          1 <1>        0.000
      5 C         -11.1490   -3.0350   33.7980 C.2        1 <1>        0.060
      6 O         -11.7510   -2.0050   34.0570 O.2        1 <1>        0.520
      7 C3        -10.1560   -3.0670   32.6670 C.3        1 <1>        0.020
      8 H3         -9.9182   -4.1052   32.3922 H          1 <1>        0.000
      9 H4        -10.5690   -2.5540   31.7860 H          1 <1>        0.000
     10 C          -5.9320   -0.9310   31.6010 C.2        1 <1>       -0.020
     11 O          -6.3640    0.0720   31.0570 O.2        1 <1>        0.510
     12 C3         -6.6870   -1.5580   32.7430 C.3        1 <1>        0.010
     13 H4         -7.0311   -0.7808   33.4412 H          1 <1>        0.000
     14 O1        -11.4060   -6.1580   35.4520 O.3        1 <1>        0.050
     15 N1        -10.8700   -5.3620   34.4160 N.2        1 <1>        0.180
     16 C1        -11.3940   -4.2270   34.6220 C.2        1 <1>        0.100
     17 C2        -12.2690   -4.2710   35.7850 C.2        1 <1>        0.090
     18 N2        -12.2800   -5.4330   36.2910 N.2        1 <1>        0.130
     19 H2        -12.8368   -3.4252   36.1699 H          1 <1>        0.000
     20 O1         -5.8500   -2.4760   33.4530 O.3        1 <1>        0.440
     21 H1         -6.2857   -2.5969   34.2885 H          1 <1>        0.000
     22 C1         -4.6550   -1.5360   31.0970 C.3        1 <1>       -0.010
     23 C2         -4.9470   -2.9210   30.4900 C.3        1 <1>       -0.030
     24 H1         -3.9460   -1.6440   31.9310 H          1 <1>        0.000
     25 H3         -4.2189   -0.8828   30.3268 H          1 <1>        0.000
     26 H4         -5.3829   -3.5748   31.2598 H          1 <1>        0.000
     27 H6         -5.6561   -2.8140   29.6559 H          1 <1>        0.000
     28 C1         -3.3540   -4.8750   30.2510 C.ar       1 <1>        0.200
     29 C2         -2.1640   -5.4390   29.7810 C.ar       1 <1>        0.170
     30 C3         -1.2690   -4.6630   29.0370 C.ar       1 <1>        0.170
     31 C4         -1.5640   -3.3240   28.7640 C.ar       1 <1>        0.070
     32 C5         -2.7540   -2.7610   29.2340 C.ar       1 <1>        0.090
     33 C6         -3.6490   -3.5360   29.9770 C.ar       1 <1>        0.060
     34 H1         -4.0481   -5.4761   30.8271 H          1 <1>        0.000
     35 H3         -0.3461   -5.0999   28.6731 H          1 <1>        0.000
     36 H4         -0.8699   -2.7229   28.1879 H          1 <1>        0.000
     37 H5         -2.9830   -1.7229   29.0220 H          1 <1>        0.000
     38 C1         -1.8450   -6.8850   30.0760 C.2        1 <1>        0.060
     39 O1         -0.6750   -7.2210   30.1780 O.2        1 <1>        0.030
     40 O2         -2.8530   -7.7520   30.2170 O.3        1 <1>        0.520
     41 H2         -2.5640   -8.6381   30.4010 H          1 <1>        0.000
@<TRIPOS>BOND
     1    2    1 2  
     2    1    3 am 
     3    3    4 1  
     4    5    6 2  
     5    5    7 1  
     6    7    8 1  
     7    7    9 1  
     8    3    7 1  
     9   10   11 2  
    10   10   12 1  
    11   12   13 1  
    12    1   12 1  
    13   14   15 1  
    14   14   18 1  
    15   15   16 2  
    16   16   17 1  
    17   17   18 2  
    18   17   19 1  
    19    5   16 1  
    20   20   21 1  
    21   12   20 1  
    22   23   22 1  
    23   22   24 1  
    24   22   25 1  
    25   23   26 1  
    26   23   27 1  
    27   10   22 1  
    28   28   29 ar 
    29   28   33 ar 
    30   29   30 ar 
    31   30   31 ar 
    32   31   32 ar 
    33   32   33 ar 
    34   28   34 1  
    35   30   35 1  
    36   31   36 1  
    37   32   37 1  
    38   23   33 1  
    39   38   39 2  
    40   38   40 1  
    41   40   41 1  
    42   29   38 1  
# Name:          No_7_181
# Creation time: Wed Mar 20 12:02:12 2024


@<TRIPOS>MOLECULE
000001_000002
   46    47     1     1     1
SMALL
USER_CHARGES


@<TRIPOS>ATOM
      1 C30        -7.8780   -2.2990   32.2090 C.2        1 <1>        0.060
      2 O32        -7.9100   -2.7650   31.0800 O.2        1 <1>        0.520
      3 N4         -8.9360   -2.3980   33.0750 N.am       1 <1>        0.500
      4 H          -8.8660   -2.0071   33.9928 H          1 <1>        0.000
      5 C         -11.1490   -3.0350   33.7980 C.2        1 <1>        0.060
      6 O         -11.7510   -2.0050   34.0570 O.2        1 <1>        0.520
      7 C3        -10.1560   -3.0670   32.6670 C.3        1 <1>        0.020
      8 H3         -9.9182   -4.1052   32.3922 H          1 <1>        0.000
      9 H4        -10.5690   -2.5540   31.7860 H          1 <1>        0.000
     10 C          -5.9320   -0.9310   31.6010 C.2        1 <1>       -0.020
     11 O          -6.3640    0.0720   31.0570 O.2        1 <1>        0.510
     12 C3         -6.6870   -1.5580   32.7430 C.3        1 <1>        0.010
     13 H4         -7.0311   -0.7808   33.4412 H          1 <1>        0.000
     14 O1        -11.4060   -6.1580   35.4520 O.3        1 <1>        0.050
     15 N1        -10.8700   -5.3620   34.4160 N.2        1 <1>        0.180
     16 C1        -11.3940   -4.2270   34.6220 C.2        1 <1>        0.100
     17 C2        -12.2690   -4.2710   35.7850 C.2        1 <1>        0.090
     18 N2        -12.2800   -5.4330   36.2910 N.2        1 <1>        0.130
     19 H2        -12.8368   -3.4252   36.1699 H          1 <1>        0.000
     20 O1         -5.8500   -2.4760   33.4530 O.3        1 <1>        0.440
     21 H1         -6.2857   -2.5969   34.2885 H          1 <1>        0.000
     22 C1         -4.6550   -1.5360   31.0970 C.3        1 <1>       -0.010
     23 C2         -4.9470   -2.9210   30.4900 C.3        1 <1>       -0.030
     24 H1         -3.9460   -1.6440   31.9310 H          1 <1>        0.000
     25 H3         -4.2189   -0.8828   30.3268 H          1 <1>        0.000
     26 H4         -5.3829   -3.5748   31.2598 H          1 <1>        0.000
     27 H6         -5.6561   -2.8140   29.6559 H          1 <1>        0.000
     28 C1         -3.3540   -4.8750   30.2510 C.ar       1 <1>        0.090
     29 C2         -2.1640   -5.4390   29.7810 C.ar       1 <1>        0.180
     30 C3         -1.2690   -4.6630   29.0370 C.ar       1 <1>        0.170
     31 C4         -1.5640   -3.3240   28.7640 C.ar       1 <1>        0.070
     32 C5         -2.7540   -2.7610   29.2340 C.ar       1 <1>        0.090
     33 C6         -3.6490   -3.5360   29.9770 C.ar       1 <1>        0.060
     34 H2         -1.9350   -6.4771   29.9930 H          1 <1>        0.000
     35 H3         -0.3461   -5.0999   28.6731 H          1 <1>        0.000
     36 H4         -0.8699   -2.7229   28.1879 H          1 <1>        0.000
     37 H5         -2.9830   -1.7229   29.0220 H          1 <1>        0.000
     38 C          -3.8360   -6.2200   32.0730 C.cat      1 <1>        0.090
     39 N          -4.2180   -5.6240   30.9690 N.pl3      1 <1>        0.080
     40 N          -2.6010   -6.0930   32.4930 N.pl3      1 <1>        0.060
     41 N1         -4.6910   -6.9430   32.7560 N.pl3      1 <1>        0.100
     42 H2         -5.1850   -5.7140   30.6260 H          1 <1>        0.000
     43 H3         -2.2860   -6.5550   33.3580 H          1 <1>        0.000
     44 H4         -1.9181   -5.5291   31.9671 H          1 <1>        0.000
     45 H5         -5.6649   -7.0520   32.4390 H          1 <1>        0.000
     46 H6         -4.4060   -7.4170   33.6249 H          1 <1>        0.000
@<TRIPOS>BOND
     1    2    1 2  
     2    1    3 am 
     3    3    4 1  
     4    5    6 2  
     5    5    7 1  
     6    7    8 1  
     7    7    9 1  
     8    3    7 1  
     9   10   11 2  
    10   10   12 1  
    11   12   13 1  
    12    1   12 1  
    13   14   15 1  
    14   14   18 1  
    15   15   16 2  
    16   16   17 1  
    17   17   18 2  
    18   17   19 1  
    19    5   16 1  
    20   20   21 1  
    21   12   20 1  
    22   23   22 1  
    23   22   24 1  
    24   22   25 1  
    25   23   26 1  
    26   23   27 1  
    27   10   22 1  
    28   28   29 ar 
    29   28   33 ar 
    30   29   30 ar 
    31   30   31 ar 
    32   31   32 ar 
    33   32   33 ar 
    34   29   34 1  
    35   30   35 1  
    36   31   36 1  
    37   32   37 1  
    38   23   33 1  
    39   38   39 ar 
    40   38   40 ar 
    41   38   41 ar 
    42   39   42 1  
    43   40   43 1  
    44   40   44 1  
    45   41   45 1  
    46   41   46 1  
    47   28   39 1  
# Name:          No_7_183
# Creation time: Wed Mar 20 12:02:12 2024


@<TRIPOS>MOLECULE
000001_000003
   46    47     1     1     1
SMALL
USER_CHARGES


@<TRIPOS>ATOM
      1 C30        -7.8780   -2.2990   32.2090 C.2        1 <1>        0.060
      2 O32        -7.9100   -2.7650   31.0800 O.2        1 <1>        0.520
      3 N4         -8.9360   -2.3980   33.0750 N.am       1 <1>        0.500
      4 H          -8.8660   -2.0071   33.9928 H          1 <1>        0.000
      5 C         -11.1490   -3.0350   33.7980 C.2        1 <1>        0.060
      6 O         -11.7510   -2.0050   34.0570 O.2        1 <1>        0.520
      7 C3        -10.1560   -3.0670   32.6670 C.3        1 <1>        0.020
      8 H3         -9.9182   -4.1052   32.3922 H          1 <1>        0.000
      9 H4        -10.5690   -2.5540   31.7860 H          1 <1>        0.000
     10 C          -5.9320   -0.9310   31.6010 C.2        1 <1>       -0.020
     11 O          -6.3640    0.0720   31.0570 O.2        1 <1>        0.510
     12 C3         -6.6870   -1.5580   32.7430 C.3        1 <1>        0.010
     13 H4         -7.0311   -0.7808   33.4412 H          1 <1>        0.000
     14 O1        -11.4060   -6.1580   35.4520 O.3        1 <1>        0.050
     15 N1        -10.8700   -5.3620   34.4160 N.2        1 <1>        0.180
     16 C1        -11.3940   -4.2270   34.6220 C.2        1 <1>        0.100
     17 C2        -12.2690   -4.2710   35.7850 C.2        1 <1>        0.090
     18 N2        -12.2800   -5.4330   36.2910 N.2        1 <1>        0.130
     19 H2        -12.8368   -3.4252   36.1699 H          1 <1>        0.000
     20 O1         -5.8500   -2.4760   33.4530 O.3        1 <1>        0.440
     21 H1         -6.2857   -2.5969   34.2885 H          1 <1>        0.000
     22 C1         -4.6550   -1.5360   31.0970 C.3        1 <1>       -0.010
     23 C2         -4.9470   -2.9210   30.4900 C.3        1 <1>       -0.030
     24 H1         -3.9460   -1.6440   31.9310 H          1 <1>        0.000
     25 H3         -4.2189   -0.8828   30.3268 H          1 <1>        0.000
     26 H4         -5.3829   -3.5748   31.2598 H          1 <1>        0.000
     27 H6         -5.6561   -2.8140   29.6559 H          1 <1>        0.000
     28 C1         -3.3540   -4.8750   30.2510 C.ar       1 <1>        0.090
     29 C2         -2.1640   -5.4390   29.7810 C.ar       1 <1>        0.180
     30 C3         -1.2690   -4.6630   29.0370 C.ar       1 <1>        0.170
     31 C4         -1.5640   -3.3240   28.7640 C.ar       1 <1>        0.070
     32 C5         -2.7540   -2.7610   29.2340 C.ar       1 <1>        0.090
     33 C6         -3.6490   -3.5360   29.9770 C.ar       1 <1>        0.060
     34 H2         -1.9350   -6.4771   29.9930 H          1 <1>        0.000
     35 H3         -0.3461   -5.0999   28.6731 H          1 <1>        0.000
     36 H4         -0.8699   -2.7229   28.1879 H          1 <1>        0.000
     37 H5         -2.9830   -1.7229   29.0220 H          1 <1>        0.000
     38 C          -4.2030   -5.5980   32.2800 C.cat      1 <1>        0.090
     39 N          -4.2180   -5.6240   30.9690 N.pl3      1 <1>        0.230
     40 N          -3.3410   -4.8380   32.9110 N.pl3      1 <1>        0.060
     41 N1         -5.0510   -6.3320   32.9600 N.pl3      1 <1>       -0.040
     42 H2         -4.8890   -6.2160   30.4590 H          1 <1>        0.000
     43 H3         -3.3170   -4.8070   33.9403 H          1 <1>        0.000
     44 H4         -2.6693   -4.2553   32.3912 H          1 <1>        0.000
     45 H5         -5.7339   -6.9339   32.4781 H          1 <1>        0.000
     46 H6         -5.0520   -6.3230   33.9900 H          1 <1>        0.000
@<TRIPOS>BOND
     1    2    1 2  
     2    1    3 am 
     3    3    4 1  
     4    5    6 2  
     5    5    7 1  
     6    7    8 1  
     7    7    9 1  
     8    3    7 1  
     9   10   11 2  
    10   10   12 1  
    11   12   13 1  
    12    1   12 1  
    13   14   15 1  
    14   14   18 1  
    15   15   16 2  
    16   16   17 1  
    17   17   18 2  
    18   17   19 1  
    19    5   16 1  
    20   20   21 1  
    21   12   20 1  
    22   23   22 1  
    23   22   24 1  
    24   22   25 1  
    25   23   26 1  
    26   23   27 1  
    27   10   22 1  
    28   28   29 ar 
    29   28   33 ar 
    30   29   30 ar 
    31   30   31 ar 
    32   31   32 ar 
    33   32   33 ar 
    34   29   34 1  
    35   30   35 1  
    36   31   36 1  
    37   32   37 1  
    38   23   33 1  
    39   38   39 ar 
    40   38   40 ar 
    41   38   41 ar 
    42   39   42 1  
    43   40   43 1  
    44   40   44 1  
    45   41   45 1  
    46   41   46 1  
    47   28   39 1  
# Name:          No_7_182
# Creation time: Wed Mar 20 12:02:12 2024


@<TRIPOS>MOLECULE
000001_000004
   46    47     1     1     1
SMALL
USER_CHARGES


@<TRIPOS>ATOM
      1 C30        -7.8780   -2.2990   32.2090 C.2        1 <1>        0.060
      2 O32        -7.9100   -2.7650   31.0800 O.2        1 <1>        0.520
      3 N4         -8.9360   -2.3980   33.0750 N.am       1 <1>        0.500
      4 H          -8.8660   -2.0071   33.9928 H          1 <1>        0.000
      5 C         -11.1490   -3.0350   33.7980 C.2        1 <1>        0.060
      6 O         -11.7510   -2.0050   34.0570 O.2        1 <1>        0.520
      7 C3        -10.1560   -3.0670   32.6670 C.3        1 <1>        0.020
      8 H3         -9.9182   -4.1052   32.3922 H          1 <1>        0.000
      9 H4        -10.5690   -2.5540   31.7860 H          1 <1>        0.000
     10 C          -5.9320   -0.9310   31.6010 C.2        1 <1>       -0.020
     11 O          -6.3640    0.0720   31.0570 O.2        1 <1>        0.510
     12 C3         -6.6870   -1.5580   32.7430 C.3        1 <1>        0.010
     13 H4         -7.0311   -0.7808   33.4412 H          1 <1>        0.000
     14 O1        -11.4060   -6.1580   35.4520 O.3        1 <1>        0.050
     15 N1        -10.8700   -5.3620   34.4160 N.2        1 <1>        0.180
     16 C1        -11.3940   -4.2270   34.6220 C.2        1 <1>        0.100
     17 C2        -12.2690   -4.2710   35.7850 C.2        1 <1>        0.090
     18 N2        -12.2800   -5.4330   36.2910 N.2        1 <1>        0.130
     19 H2        -12.8368   -3.4252   36.1699 H          1 <1>        0.000
     20 O1         -5.8500   -2.4760   33.4530 O.3        1 <1>        0.440
     21 H1         -6.2857   -2.5969   34.2885 H          1 <1>        0.000
     22 C1         -4.6550   -1.5360   31.0970 C.3        1 <1>       -0.010
     23 C2         -4.9470   -2.9210   30.4900 C.3        1 <1>       -0.030
     24 H1         -3.9460   -1.6440   31.9310 H          1 <1>        0.000
     25 H3         -4.2189   -0.8828   30.3268 H          1 <1>        0.000
     26 H4         -5.3829   -3.5748   31.2598 H          1 <1>        0.000
     27 H6         -5.6561   -2.8140   29.6559 H          1 <1>        0.000
     28 C1         -3.3540   -4.8750   30.2510 C.ar       1 <1>        0.090
     29 C2         -2.1640   -5.4390   29.7810 C.ar       1 <1>        0.180
     30 C3         -1.2690   -4.6630   29.0370 C.ar       1 <1>        0.170
     31 C4         -1.5640   -3.3240   28.7640 C.ar       1 <1>        0.070
     32 C5         -2.7540   -2.7610   29.2340 C.ar       1 <1>        0.090
     33 C6         -3.6490   -3.5360   29.9770 C.ar       1 <1>        0.060
     34 H2         -1.9350   -6.4771   29.9930 H          1 <1>        0.000
     35 H3         -0.3461   -5.0999   28.6731 H          1 <1>        0.000
     36 H4         -0.8699   -2.7229   28.1879 H          1 <1>        0.000
     37 H5         -2.9830   -1.7229   29.0220 H          1 <1>        0.000
     38 C          -3.9410   -5.9770   32.2010 C.cat      1 <1>        0.090
     39 N          -4.2180   -5.6240   30.9690 N.pl3      1 <1>        0.080
     40 N          -2.8110   -5.6030   32.7520 N.pl3      1 <1>        0.040
     41 N1         -4.7930   -6.7040   32.8820 N.pl3      1 <1>        0.080
     42 H2         -5.1012   -5.9101   30.5229 H          1 <1>        0.000
     43 H3         -2.5790   -5.8720   33.7188 H          1 <1>        0.000
     44 H4         -2.1314   -5.0313   32.2303 H          1 <1>        0.000
     45 H5         -5.6841   -7.0060   32.4630 H          1 <1>        0.000
     46 H6         -4.5891   -6.9898   33.8503 H          1 <1>        0.000
@<TRIPOS>BOND
     1    2    1 2  
     2    1    3 am 
     3    3    4 1  
     4    5    6 2  
     5    5    7 1  
     6    7    8 1  
     7    7    9 1  
     8    3    7 1  
     9   10   11 2  
    10   10   12 1  
    11   12   13 1  
    12    1   12 1  
    13   14   15 1  
    14   14   18 1  
    15   15   16 2  
    16   16   17 1  
    17   17   18 2  
    18   17   19 1  
    19    5   16 1  
    20   20   21 1  
    21   12   20 1  
    22   23   22 1  
    23   22   24 1  
    24   22   25 1  
    25   23   26 1  
    26   23   27 1  
    27   10   22 1  
    28   28   29 ar 
    29   28   33 ar 
    30   29   30 ar 
    31   30   31 ar 
    32   31   32 ar 
    33   32   33 ar 
    34   29   34 1  
    35   30   35 1  
    36   31   36 1  
    37   32   37 1  
    38   23   33 1  
    39   38   39 ar 
    40   38   40 ar 
    41   38   41 ar 
    42   39   42 1  
    43   40   43 1  
    44   40   44 1  
    45   41   45 1  
    46   41   46 1  
    47   28   39 1  
# Name:          No_7_174
# Creation time: Wed Mar 20 12:02:12 2024


@<TRIPOS>MOLECULE
000001_000005
   45    46     1     1     1
SMALL
USER_CHARGES


@<TRIPOS>ATOM
      1 C30        -7.8780   -2.2990   32.2090 C.2        1 <1>        0.060
      2 O32        -7.9100   -2.7650   31.0800 O.2        1 <1>        0.520
      3 N4         -8.9360   -2.3980   33.0750 N.am       1 <1>        0.500
      4 H          -8.8660   -2.0071   33.9928 H          1 <1>        0.000
      5 C         -11.1490   -3.0350   33.7980 C.2        1 <1>        0.060
      6 O         -11.7510   -2.0050   34.0570 O.2        1 <1>        0.520
      7 C3        -10.1560   -3.0670   32.6670 C.3        1 <1>        0.020
      8 H3         -9.9182   -4.1052   32.3922 H          1 <1>        0.000
      9 H4        -10.5690   -2.5540   31.7860 H          1 <1>        0.000
     10 C          -5.9320   -0.9310   31.6010 C.2        1 <1>       -0.020
     11 O          -6.3640    0.0720   31.0570 O.2        1 <1>        0.510
     12 C3         -6.6870   -1.5580   32.7430 C.3        1 <1>        0.010
     13 H4         -7.0311   -0.7808   33.4412 H          1 <1>        0.000
     14 O1        -11.4060   -6.1580   35.4520 O.3        1 <1>        0.050
     15 N1        -10.8700   -5.3620   34.4160 N.2        1 <1>        0.180
     16 C1        -11.3940   -4.2270   34.6220 C.2        1 <1>        0.100
     17 C2        -12.2690   -4.2710   35.7850 C.2        1 <1>        0.090
     18 N2        -12.2800   -5.4330   36.2910 N.2        1 <1>        0.130
     19 H2        -12.8368   -3.4252   36.1699 H          1 <1>        0.000
     20 O1         -5.8500   -2.4760   33.4530 O.3        1 <1>        0.440
     21 H1         -6.2857   -2.5969   34.2885 H          1 <1>        0.000
     22 C1         -4.6550   -1.5360   31.0970 C.3        1 <1>       -0.010
     23 C2         -4.9470   -2.9210   30.4900 C.3        1 <1>       -0.030
     24 H1         -3.9460   -1.6440   31.9310 H          1 <1>        0.000
     25 H3         -4.2189   -0.8828   30.3268 H          1 <1>        0.000
     26 H4         -5.3829   -3.5748   31.2598 H          1 <1>        0.000
     27 H6         -5.6561   -2.8140   29.6559 H          1 <1>        0.000
     28 C1         -3.3540   -4.8750   30.2510 C.ar       1 <1>        0.200
     29 C2         -2.1640   -5.4390   29.7810 C.ar       1 <1>        0.180
     30 C3         -1.2690   -4.6630   29.0370 C.ar       1 <1>        0.170
     31 C4         -1.5640   -3.3240   28.7640 C.ar       1 <1>        0.030
     32 C5         -2.7540   -2.7610   29.2340 C.ar       1 <1>        0.090
     33 C6         -3.6490   -3.5360   29.9770 C.ar       1 <1>        0.060
     34 H1         -4.0481   -5.4761   30.8271 H          1 <1>        0.000
     35 H2         -1.9350   -6.4771   29.9930 H          1 <1>        0.000
     36 H3         -0.3461   -5.0999   28.6731 H          1 <1>        0.000
     37 H5         -2.9830   -1.7229   29.0220 H          1 <1>        0.000
     38 O1          0.0900   -1.5920   28.8620 O.3        1 <1>        0.020
     39 C1         -0.5880   -2.4790   27.9530 C.3        1 <1>       -0.020
     40 C2          1.0450   -0.7360   28.2080 C.3        1 <1>        0.090
     41 H5          0.1221   -3.1511   27.4489 H          1 <1>        0.000
     42 H6         -1.1568   -1.9162   27.1982 H          1 <1>        0.000
     43 H7          1.5099   -0.0991   28.9749 H          1 <1>        0.000
     44 H8          0.5559   -0.0879   27.4659 H          1 <1>        0.000
     45 H9          1.8351   -1.3231   27.7169 H          1 <1>        0.000
@<TRIPOS>BOND
     1    2    1 2  
     2    1    3 am 
     3    3    4 1  
     4    5    6 2  
     5    5    7 1  
     6    7    8 1  
     7    7    9 1  
     8    3    7 1  
     9   10   11 2  
    10   10   12 1  
    11   12   13 1  
    12    1   12 1  
    13   14   15 1  
    14   14   18 1  
    15   15   16 2  
    16   16   17 1  
    17   17   18 2  
    18   17   19 1  
    19    5   16 1  
    20   20   21 1  
    21   12   20 1  
    22   23   22 1  
    23   22   24 1  
    24   22   25 1  
    25   23   26 1  
    26   23   27 1  
    27   10   22 1  
    28   28   29 ar 
    29   28   33 ar 
    30   29   30 ar 
    31   30   31 ar 
    32   31   32 ar 
    33   32   33 ar 
    34   28   34 1  
    35   29   35 1  
    36   30   36 1  
    37   32   37 1  
    38   23   33 1  
    39   38   39 1  
    40   38   40 1  
    41   39   41 1  
    42   39   42 1  
    43   40   43 1  
    44   40   44 1  
    45   40   45 1  
    46   31   39 1  
# Name:          No_7_127
# Creation time: Wed Mar 20 12:02:12 2024


@<TRIPOS>MOLECULE
000001_000006
   45    46     1     1     1
SMALL
USER_CHARGES


@<TRIPOS>ATOM
      1 C30        -7.8780   -2.2990   32.2090 C.2        1 <1>        0.060
      2 O32        -7.9100   -2.7650   31.0800 O.2        1 <1>        0.520
      3 N4         -8.9360   -2.3980   33.0750 N.am       1 <1>        0.500
      4 H          -8.8660   -2.0071   33.9928 H          1 <1>        0.000
      5 C         -11.1490   -3.0350   33.7980 C.2        1 <1>        0.060
      6 O         -11.7510   -2.0050   34.0570 O.2        1 <1>        0.520
      7 C3        -10.1560   -3.0670   32.6670 C.3        1 <1>        0.020
      8 H3         -9.9182   -4.1052   32.3922 H          1 <1>        0.000
      9 H4        -10.5690   -2.5540   31.7860 H          1 <1>        0.000
     10 C          -5.9320   -0.9310   31.6010 C.2        1 <1>       -0.020
     11 O          -6.3640    0.0720   31.0570 O.2        1 <1>        0.510
     12 C3         -6.6870   -1.5580   32.7430 C.3        1 <1>        0.010
     13 H4         -7.0311   -0.7808   33.4412 H          1 <1>        0.000
     14 O1        -11.4060   -6.1580   35.4520 O.3        1 <1>        0.050
     15 N1        -10.8700   -5.3620   34.4160 N.2        1 <1>        0.180
     16 C1        -11.3940   -4.2270   34.6220 C.2        1 <1>        0.100
     17 C2        -12.2690   -4.2710   35.7850 C.2        1 <1>        0.090
     18 N2        -12.2800   -5.4330   36.2910 N.2        1 <1>        0.130
     19 H2        -12.8368   -3.4252   36.1699 H          1 <1>        0.000
     20 O1         -5.8500   -2.4760   33.4530 O.3        1 <1>        0.440
     21 H1         -6.2857   -2.5969   34.2885 H          1 <1>        0.000
     22 C1         -4.6550   -1.5360   31.0970 C.3        1 <1>       -0.010
     23 C2         -4.9470   -2.9210   30.4900 C.3        1 <1>       -0.030
     24 H1         -3.9460   -1.6440   31.9310 H          1 <1>        0.000
     25 H3         -4.2189   -0.8828   30.3268 H          1 <1>        0.000
     26 H4         -5.3829   -3.5748   31.2598 H          1 <1>        0.000
     27 H6         -5.6561   -2.8140   29.6559 H          1 <1>        0.000
     28 C1         -3.3540   -4.8750   30.2510 C.ar       1 <1>        0.200
     29 C2         -2.1640   -5.4390   29.7810 C.ar       1 <1>        0.130
     30 C3         -1.2690   -4.6630   29.0370 C.ar       1 <1>        0.170
     31 C4         -1.5640   -3.3240   28.7640 C.ar       1 <1>        0.070
     32 C5         -2.7540   -2.7610   29.2340 C.ar       1 <1>        0.090
     33 C6         -3.6490   -3.5360   29.9770 C.ar       1 <1>        0.060
     34 H1         -4.0481   -5.4761   30.8271 H          1 <1>        0.000
     35 H3         -0.3461   -5.0999   28.6731 H          1 <1>        0.000
     36 H4         -0.8699   -2.7229   28.1879 H          1 <1>        0.000
     37 H5         -2.9830   -1.7229   29.0220 H          1 <1>        0.000
     38 O1         -1.4410   -6.9910   31.4590 O.3        1 <1>       -0.000
     39 C1         -1.8420   -6.8990   30.0790 C.3        1 <1>       -0.020
     40 C2         -1.1100   -8.3330   31.8620 C.3        1 <1>        0.080
     41 H5         -2.7415   -7.5017   29.8851 H          1 <1>        0.000
     42 H6         -1.0329   -7.2230   29.4079 H          1 <1>        0.000
     43 H7         -0.8182   -8.3050   32.9222 H          1 <1>        0.000
     44 H8         -0.2651   -8.7269   31.2781 H          1 <1>        0.000
     45 H9         -1.9733   -9.0062   31.7550 H          1 <1>        0.000
@<TRIPOS>BOND
     1    2    1 2  
     2    1    3 am 
     3    3    4 1  
     4    5    6 2  
     5    5    7 1  
     6    7    8 1  
     7    7    9 1  
     8    3    7 1  
     9   10   11 2  
    10   10   12 1  
    11   12   13 1  
    12    1   12 1  
    13   14   15 1  
    14   14   18 1  
    15   15   16 2  
    16   16   17 1  
    17   17   18 2  
    18   17   19 1  
    19    5   16 1  
    20   20   21 1  
    21   12   20 1  
    22   23   22 1  
    23   22   24 1  
    24   22   25 1  
    25   23   26 1  
    26   23   27 1  
    27   10   22 1  
    28   28   29 ar 
    29   28   33 ar 
    30   29   30 ar 
    31   30   31 ar 
    32   31   32 ar 
    33   32   33 ar 
    34   28   34 1  
    35   30   35 1  
    36   31   36 1  
    37   32   37 1  
    38   23   33 1  
    39   38   39 1  
    40   38   40 1  
    41   39   41 1  
    42   39   42 1  
    43   40   43 1  
    44   40   44 1  
    45   40   45 1  
    46   29   39 1  
# Name:          No_7_113
# Creation time: Wed Mar 20 12:02:12 2024


@<TRIPOS>MOLECULE
000001_000007
   45    46     1     1     1
SMALL
USER_CHARGES


@<TRIPOS>ATOM
      1 C30        -7.8780   -2.2990   32.2090 C.2        1 <1>        0.060
      2 O32        -7.9100   -2.7650   31.0800 O.2        1 <1>        0.520
      3 N4         -8.9360   -2.3980   33.0750 N.am       1 <1>        0.500
      4 H          -8.8660   -2.0071   33.9928 H          1 <1>        0.000
      5 C         -11.1490   -3.0350   33.7980 C.2        1 <1>        0.060
      6 O         -11.7510   -2.0050   34.0570 O.2        1 <1>        0.520
      7 C3        -10.1560   -3.0670   32.6670 C.3        1 <1>        0.020
      8 H3         -9.9182   -4.1052   32.3922 H          1 <1>        0.000
      9 H4        -10.5690   -2.5540   31.7860 H          1 <1>        0.000
     10 C          -5.9320   -0.9310   31.6010 C.2        1 <1>       -0.020
     11 O          -6.3640    0.0720   31.0570 O.2        1 <1>        0.510
     12 C3         -6.6870   -1.5580   32.7430 C.3        1 <1>        0.010
     13 H4         -7.0311   -0.7808   33.4412 H          1 <1>        0.000
     14 O1        -11.4060   -6.1580   35.4520 O.3        1 <1>        0.050
     15 N1        -10.8700   -5.3620   34.4160 N.2        1 <1>        0.180
     16 C1        -11.3940   -4.2270   34.6220 C.2        1 <1>        0.100
     17 C2        -12.2690   -4.2710   35.7850 C.2        1 <1>        0.090
     18 N2        -12.2800   -5.4330   36.2910 N.2        1 <1>        0.130
     19 H2        -12.8368   -3.4252   36.1699 H          1 <1>        0.000
     20 O1         -5.8500   -2.4760   33.4530 O.3        1 <1>        0.440
     21 H1         -6.2857   -2.5969   34.2885 H          1 <1>        0.000
     22 C1         -4.6550   -1.5360   31.0970 C.3        1 <1>       -0.010
     23 C2         -4.9470   -2.9210   30.4900 C.3        1 <1>       -0.030
     24 H1         -3.9460   -1.6440   31.9310 H          1 <1>        0.000
     25 H3         -4.2189   -0.8828   30.3268 H          1 <1>        0.000
     26 H4         -5.3829   -3.5748   31.2598 H          1 <1>        0.000
     27 H6         -5.6561   -2.8140   29.6559 H          1 <1>        0.000
     28 C1         -3.3540   -4.8750   30.2510 C.ar       1 <1>        0.200
     29 C2         -2.1640   -5.4390   29.7810 C.ar       1 <1>        0.130
     30 C3         -1.2690   -4.6630   29.0370 C.ar       1 <1>        0.170
     31 C4         -1.5640   -3.3240   28.7640 C.ar       1 <1>        0.070
     32 C5         -2.7540   -2.7610   29.2340 C.ar       1 <1>        0.090
     33 C6         -3.6490   -3.5360   29.9770 C.ar       1 <1>        0.060
     34 H1         -4.0481   -5.4761   30.8271 H          1 <1>        0.000
     35 H3         -0.3461   -5.0999   28.6731 H          1 <1>        0.000
     36 H4         -0.8699   -2.7229   28.1879 H          1 <1>        0.000
     37 H5         -2.9830   -1.7229   29.0220 H          1 <1>        0.000
     38 O1         -3.0340   -7.5180   30.5970 O.3        1 <1>        0.010
     39 C1         -1.8420   -6.8990   30.0790 C.3        1 <1>       -0.020
     40 C2         -2.8530   -8.9100   30.9190 C.3        1 <1>        0.110
     41 H5         -1.5158   -7.3824   29.1463 H          1 <1>        0.000
     42 H6         -1.0242   -6.9330   30.8138 H          1 <1>        0.000
     43 H7         -3.8088   -9.2949   31.3039 H          1 <1>        0.000
     44 H8         -2.0849   -9.0430   31.6951 H          1 <1>        0.000
     45 H9         -2.5771   -9.4919   30.0272 H          1 <1>        0.000
@<TRIPOS>BOND
     1    2    1 2  
     2    1    3 am 
     3    3    4 1  
     4    5    6 2  
     5    5    7 1  
     6    7    8 1  
     7    7    9 1  
     8    3    7 1  
     9   10   11 2  
    10   10   12 1  
    11   12   13 1  
    12    1   12 1  
    13   14   15 1  
    14   14   18 1  
    15   15   16 2  
    16   16   17 1  
    17   17   18 2  
    18   17   19 1  
    19    5   16 1  
    20   20   21 1  
    21   12   20 1  
    22   23   22 1  
    23   22   24 1  
    24   22   25 1  
    25   23   26 1  
    26   23   27 1  
    27   10   22 1  
    28   28   29 ar 
    29   28   33 ar 
    30   29   30 ar 
    31   30   31 ar 
    32   31   32 ar 
    33   32   33 ar 
    34   28   34 1  
    35   30   35 1  
    36   31   36 1  
    37   32   37 1  
    38   23   33 1  
    39   38   39 1  
    40   38   40 1  
    41   39   41 1  
    42   39   42 1  
    43   40   43 1  
    44   40   44 1  
    45   40   45 1  
    46   29   39 1  
# Name:          No_7_114
# Creation time: Wed Mar 20 12:02:12 2024


@<TRIPOS>MOLECULE
000001_000008
   45    46     1     1     1
SMALL
USER_CHARGES


@<TRIPOS>ATOM
      1 C30        -7.8780   -2.2990   32.2090 C.2        1 <1>        0.060
      2 O32        -7.9100   -2.7650   31.0800 O.2        1 <1>        0.520
      3 N4         -8.9360   -2.3980   33.0750 N.am       1 <1>        0.500
      4 H          -8.8660   -2.0071   33.9928 H          1 <1>        0.000
      5 C         -11.1490   -3.0350   33.7980 C.2        1 <1>        0.060
      6 O         -11.7510   -2.0050   34.0570 O.2        1 <1>        0.520
      7 C3        -10.1560   -3.0670   32.6670 C.3        1 <1>        0.020
      8 H3         -9.9182   -4.1052   32.3922 H          1 <1>        0.000
      9 H4        -10.5690   -2.5540   31.7860 H          1 <1>        0.000
     10 C          -5.9320   -0.9310   31.6010 C.2        1 <1>       -0.020
     11 O          -6.3640    0.0720   31.0570 O.2        1 <1>        0.510
     12 C3         -6.6870   -1.5580   32.7430 C.3        1 <1>        0.010
     13 H4         -7.0311   -0.7808   33.4412 H          1 <1>        0.000
     14 O1        -11.4060   -6.1580   35.4520 O.3        1 <1>        0.050
     15 N1        -10.8700   -5.3620   34.4160 N.2        1 <1>        0.180
     16 C1        -11.3940   -4.2270   34.6220 C.2        1 <1>        0.100
     17 C2        -12.2690   -4.2710   35.7850 C.2        1 <1>        0.090
     18 N2        -12.2800   -5.4330   36.2910 N.2        1 <1>        0.130
     19 H2        -12.8368   -3.4252   36.1699 H          1 <1>        0.000
     20 O1         -5.8500   -2.4760   33.4530 O.3        1 <1>        0.440
     21 H1         -6.2857   -2.5969   34.2885 H          1 <1>        0.000
     22 C1         -4.6550   -1.5360   31.0970 C.3        1 <1>       -0.010
     23 C2         -4.9470   -2.9210   30.4900 C.3        1 <1>       -0.030
     24 H1         -3.9460   -1.6440   31.9310 H          1 <1>        0.000
     25 H3         -4.2189   -0.8828   30.3268 H          1 <1>        0.000
     26 H4         -5.3829   -3.5748   31.2598 H          1 <1>        0.000
     27 H6         -5.6561   -2.8140   29.6559 H          1 <1>        0.000
     28 C1         -3.3540   -4.8750   30.2510 C.ar       1 <1>        0.200
     29 C2         -2.1640   -5.4390   29.7810 C.ar       1 <1>        0.130
     30 C3         -1.2690   -4.6630   29.0370 C.ar       1 <1>        0.170
     31 C4         -1.5640   -3.3240   28.7640 C.ar       1 <1>        0.070
     32 C5         -2.7540   -2.7610   29.2340 C.ar       1 <1>        0.090
     33 C6         -3.6490   -3.5360   29.9770 C.ar       1 <1>        0.060
     34 H1         -4.0481   -5.4761   30.8271 H          1 <1>        0.000
     35 H3         -0.3461   -5.0999   28.6731 H          1 <1>        0.000
     36 H4         -0.8699   -2.7229   28.1879 H          1 <1>        0.000
     37 H5         -2.9830   -1.7229   29.0220 H          1 <1>        0.000
     38 O1         -3.0880   -7.6000   30.2530 O.3        1 <1>       -0.030
     39 C1         -1.8420   -6.8990   30.0790 C.3        1 <1>       -0.020
     40 C2         -2.9110   -9.0000   30.5420 C.3        1 <1>        0.120
     41 H5         -1.2689   -7.3101   29.2349 H          1 <1>        0.000
     42 H6         -1.2300   -6.9420   30.9920 H          1 <1>        0.000
     43 H7         -3.9086   -9.4488   30.6579 H          1 <1>        0.000
     44 H8         -2.3520   -9.1460   31.4780 H          1 <1>        0.000
     45 H9         -2.3905   -9.5135   29.7202 H          1 <1>        0.000
@<TRIPOS>BOND
     1    2    1 2  
     2    1    3 am 
     3    3    4 1  
     4    5    6 2  
     5    5    7 1  
     6    7    8 1  
     7    7    9 1  
     8    3    7 1  
     9   10   11 2  
    10   10   12 1  
    11   12   13 1  
    12    1   12 1  
    13   14   15 1  
    14   14   18 1  
    15   15   16 2  
    16   16   17 1  
    17   17   18 2  
    18   17   19 1  
    19    5   16 1  
    20   20   21 1  
    21   12   20 1  
    22   23   22 1  
    23   22   24 1  
    24   22   25 1  
    25   23   26 1  
    26   23   27 1  
    27   10   22 1  
    28   28   29 ar 
    29   28   33 ar 
    30   29   30 ar 
    31   30   31 ar 
    32   31   32 ar 
    33   32   33 ar 
    34   28   34 1  
    35   30   35 1  
    36   31   36 1  
    37   32   37 1  
    38   23   33 1  
    39   38   39 1  
    40   38   40 1  
    41   39   41 1  
    42   39   42 1  
    43   40   43 1  
    44   40   44 1  
    45   40   45 1  
    46   29   39 1  
# Name:          No_6_102
# Creation time: Wed Mar 20 12:02:12 2024


@<TRIPOS>MOLECULE
000001_000009
   38    39     1     1     1
SMALL
USER_CHARGES


@<TRIPOS>ATOM
      1 C30        -7.8780   -2.2990   32.2090 C.2        1 <1>        0.060
      2 O32        -7.9100   -2.7650   31.0800 O.2        1 <1>        0.520
      3 N4         -8.9360   -2.3980   33.0750 N.am       1 <1>        0.500
      4 H          -8.8660   -2.0071   33.9928 H          1 <1>        0.000
      5 C         -11.1490   -3.0350   33.7980 C.2        1 <1>        0.060
      6 O         -11.7510   -2.0050   34.0570 O.2        1 <1>        0.520
      7 C3        -10.1560   -3.0670   32.6670 C.3        1 <1>        0.020
      8 H3         -9.9182   -4.1052   32.3922 H          1 <1>        0.000
      9 H4        -10.5690   -2.5540   31.7860 H          1 <1>        0.000
     10 C          -5.9320   -0.9310   31.6010 C.2        1 <1>       -0.020
     11 O          -6.3640    0.0720   31.0570 O.2        1 <1>        0.510
     12 C3         -6.6870   -1.5580   32.7430 C.3        1 <1>        0.010
     13 H4         -7.0311   -0.7808   33.4412 H          1 <1>        0.000
     14 O1        -11.4060   -6.1580   35.4520 O.3        1 <1>        0.050
     15 N1        -10.8700   -5.3620   34.4160 N.2        1 <1>        0.180
     16 C1        -11.3940   -4.2270   34.6220 C.2        1 <1>        0.100
     17 C2        -12.2690   -4.2710   35.7850 C.2        1 <1>        0.090
     18 N2        -12.2800   -5.4330   36.2910 N.2        1 <1>        0.130
     19 H2        -12.8368   -3.4252   36.1699 H          1 <1>        0.000
     20 O1         -5.8500   -2.4760   33.4530 O.3        1 <1>        0.440
     21 H1         -6.2857   -2.5969   34.2885 H          1 <1>        0.000
     22 C1         -4.6550   -1.5360   31.0970 C.3        1 <1>       -0.010
     23 C2         -4.9470   -2.9210   30.4900 C.3        1 <1>       -0.030
     24 H1         -3.9460   -1.6440   31.9310 H          1 <1>        0.000
     25 H3         -4.2189   -0.8828   30.3268 H          1 <1>        0.000
     26 H4         -5.3829   -3.5748   31.2598 H          1 <1>        0.000
     27 H6         -5.6561   -2.8140   29.6559 H          1 <1>        0.000
     28 C1         -3.3540   -4.8750   30.2510 C.ar       1 <1>        0.200
     29 C2         -2.1640   -5.4390   29.7810 C.ar       1 <1>        0.180
     30 C3         -1.2690   -4.6630   29.0370 C.ar       1 <1>        0.170
     31 C4         -1.5640   -3.3240   28.7640 C.ar       1 <1>        0.070
     32 C5         -2.7540   -2.7610   29.2340 C.ar       1 <1>        0.090
     33 C6         -3.6490   -3.5360   29.9770 C.ar       1 <1>        0.060
     34 H1         -4.0481   -5.4761   30.8271 H          1 <1>        0.000
     35 H2         -1.9350   -6.4771   29.9930 H          1 <1>        0.000
     36 H3         -0.3461   -5.0999   28.6731 H          1 <1>        0.000
     37 H4         -0.8699   -2.7229   28.1879 H          1 <1>        0.000
     38 H5         -2.9830   -1.7229   29.0220 H          1 <1>        0.000
@<TRIPOS>BOND
     1    2    1 2  
     2    1    3 am 
     3    3    4 1  
     4    5    6 2  
     5    5    7 1  
     6    7    8 1  
     7    7    9 1  
     8    3    7 1  
     9   10   11 2  
    10   10   12 1  
    11   12   13 1  
    12    1   12 1  
    13   14   15 1  
    14   14   18 1  
    15   15   16 2  
    16   16   17 1  
    17   17   18 2  
    18   17   19 1  
    19    5   16 1  
    20   20   21 1  
    21   12   20 1  
    22   23   22 1  
    23   22   24 1  
    24   22   25 1  
    25   23   26 1  
    26   23   27 1  
    27   10   22 1  
    28   28   29 ar 
    29   28   33 ar 
    30   29   30 ar 
    31   30   31 ar 
    32   31   32 ar 
    33   32   33 ar 
    34   28   34 1  
    35   29   35 1  
    36   30   36 1  
    37   31   37 1  
    38   32   38 1  
    39   23   33 1  
# Name:          No_7_196
# Creation time: Wed Mar 20 12:02:12 2024


@<TRIPOS>MOLECULE
000002_000001
   36    36     1     1     1
SMALL
USER_CHARGES


@<TRIPOS>ATOM
      1 C30        -7.8780   -2.2990   32.2090 C.2        1 <1>        0.060
      2 O32        -7.9100   -2.7650   31.0800 O.2        1 <1>        0.520
      3 N4         -8.9360   -2.3980   33.0750 N.am       1 <1>        0.500
      4 H          -8.8660   -2.0071   33.9928 H          1 <1>        0.000
      5 C         -11.1490   -3.0350   33.7980 C.2        1 <1>        0.060
      6 O         -11.7510   -2.0050   34.0570 O.2        1 <1>        0.520
      7 C3        -10.1560   -3.0670   32.6670 C.3        1 <1>        0.060
      8 H3         -9.9182   -4.1052   32.3922 H          1 <1>        0.000
      9 C          -5.9320   -0.9310   31.6010 C.2        1 <1>       -0.020
     10 O          -6.3640    0.0720   31.0570 O.2        1 <1>        0.510
     11 C3         -6.6870   -1.5580   32.7430 C.3        1 <1>        0.010
     12 H3         -6.0433   -2.2636   33.2887 H          1 <1>        0.000
     13 H4         -7.0311   -0.7808   33.4412 H          1 <1>        0.000
     14 O1        -11.5230   -6.1830   35.3820 O.3        1 <1>        0.010
     15 N1        -11.1000   -5.4110   34.2780 N.2        1 <1>        0.150
     16 C1        -11.3940   -4.2270   34.6220 C.2        1 <1>        0.100
     17 C2        -12.0060   -4.2150   35.9430 C.2        1 <1>        0.090
     18 N2        -12.0860   -5.3920   36.4070 N.2        1 <1>        0.120
     19 H2        -12.3489   -3.3222   36.4639 H          1 <1>        0.000
     20 C1        -10.7350   -2.3490   31.4340 C.3        1 <1>        0.040
     21 H2        -10.0252   -2.4270   30.5973 H          1 <1>        0.000
     22 O3        -11.9750   -2.9580   31.0660 O.3        1 <1>        0.520
     23 H4        -10.9041   -1.2887   31.6731 H          1 <1>        0.000
     24 H6        -12.5944   -2.8940   31.7835 H          1 <1>        0.000
     25 C1         -4.9340   -2.9520   30.5580 C.3        1 <1>       -0.010
     26 C2         -4.6550   -1.5360   31.0970 C.3        1 <1>       -0.010
     27 H1         -5.3420   -3.5770   31.3660 H          1 <1>        0.000
     28 H3         -5.6623   -2.8940   29.7357 H          1 <1>        0.000
     29 H4         -3.9267   -1.5940   31.9193 H          1 <1>        0.000
     30 H6         -4.2470   -0.9110   30.2890 H          1 <1>        0.000
     31 C          -3.6570   -3.5570   30.0540 C.2        1 <1>        0.060
     32 O          -3.6510   -4.1870   29.0100 O.2        1 <1>        0.550
     33 C3         -2.3860   -3.3860   30.8350 C.3        1 <1>        0.070
     34 H2         -2.5880   -2.7929   31.7391 H          1 <1>        0.000
     35 H3         -1.6422   -2.8651   30.2142 H          1 <1>        0.000
     36 H4         -1.9971   -4.3738   31.1229 H          1 <1>        0.000
@<TRIPOS>BOND
     1    2    1 2  
     2    1    3 am 
     3    3    4 1  
     4    5    6 2  
     5    5    7 1  
     6    7    8 1  
     7    3    7 1  
     8    9   10 2  
     9    9   11 1  
    10   11   12 1  
    11   11   13 1  
    12    1   11 1  
    13   14   15 1  
    14   14   18 1  
    15   15   16 2  
    16   16   17 1  
    17   17   18 2  
    18   17   19 1  
    19    5   16 1  
    20   20   21 1  
    21   20   22 1  
    22   20   23 1  
    23   22   24 1  
    24    7   20 1  
    25   26   25 1  
    26   25   27 1  
    27   25   28 1  
    28   26   29 1  
    29   26   30 1  
    30    9   26 1  
    31   31   32 2  
    32   31   33 1  
    33   33   34 1  
    34   33   35 1  
    35   33   36 1  
    36   25   31 1  
 
# Name:          No_7_186
# Creation time: Wed Mar 20 12:06:09 2024


@<TRIPOS>MOLECULE
000001_000001
   41    41     1     1     1
SMALL
USER_CHARGES


@<TRIPOS>ATOM
      1 C30        -7.8780   -2.2990   32.2090 C.2        1 <1>        0.060
      2 O32        -7.9100   -2.7650   31.0800 O.2        1 <1>        0.520
      3 N4         -8.9360   -2.3980   33.0750 N.am       1 <1>        0.500
      4 H          -8.8660   -2.0071   33.9928 H          1 <1>        0.000
      5 C1        -10.5890   -4.0590   33.7630 C.3        1 <1>        0.150
      6 C2        -10.1560   -3.0670   32.6670 C.3        1 <1>        0.020
      7 H1         -9.7951   -4.8049   33.9160 H          1 <1>        0.000
      8 H3        -10.7660   -3.5140   34.7020 H          1 <1>        0.000
      9 H4         -9.9791   -3.6127   31.7285 H          1 <1>        0.000
     10 H6        -10.9498   -2.3212   32.5130 H          1 <1>        0.000
     11 N1        -12.6950   -5.1340   34.5130 N.4        1 <1>        0.270
     12 C1        -11.8840   -4.7700   33.3300 C.3        1 <1>        0.060
     13 H2        -12.1901   -5.7539   35.1269 H          1 <1>        0.000
     14 H3        -12.9510   -4.3190   35.0480 H          1 <1>        0.000
     15 H5        -12.4486   -4.0945   32.6705 H          1 <1>        0.000
     16 H6        -11.6130   -5.6690   32.7570 H          1 <1>        0.000
     17 H1        -13.5471   -5.6011   34.2450 H          1 <1>        0.000
     18 C1         -6.6870   -1.5580   32.7430 C.3        1 <1>        0.010
     19 H3         -6.9861   -0.9658   33.6204 H          1 <1>        0.000
     20 N1         -6.1610   -0.6620   31.7030 N.4        1 <1>        0.500
     21 H1         -6.6110    0.2370   31.7760 H          1 <1>        0.000
     22 H2         -6.3441   -1.0583   30.7944 H          1 <1>        0.000
     23 H3         -5.1670   -0.5510   31.8280 H          1 <1>        0.000
     24 N1         -4.1830   -3.6420   34.2530 N.pl3      1 <1>        0.700
     25 C1         -4.1170   -4.1880   33.0740 C.2        1 <1>        0.070
     26 C2         -4.9950   -3.5590   32.2890 C.2        1 <1>        0.100
     27 C3         -5.6240   -2.5410   33.1410 C.2        1 <1>        0.070
     28 C4         -5.0500   -2.6750   34.3390 C.2        1 <1>       -0.080
     29 H1         -3.6022   -3.9479   35.0467 H          1 <1>        0.000
     30 H3         -5.2049   -3.7549   31.2385 H          1 <1>        0.000
     31 H5         -5.2731   -2.0798   35.2233 H          1 <1>        0.000
     32 C1         -3.2210   -5.3180   32.6600 C.3        1 <1>       -0.010
     33 C2         -3.6590   -6.6360   33.3500 C.3        1 <1>        0.180
     34 C3         -5.1130   -7.0160   32.9700 C.3        1 <1>        0.130
     35 H1         -2.1879   -5.0680   32.9430 H          1 <1>        0.000
     36 H3         -3.2680   -5.4240   31.5661 H          1 <1>        0.000
     37 H4         -3.5880   -6.5160   34.4411 H          1 <1>        0.000
     38 H5         -2.9798   -7.4472   33.0489 H          1 <1>        0.000
     39 H6         -5.4030   -7.9519   33.4700 H          1 <1>        0.000
     40 H7         -5.2010   -7.1580   31.8828 H          1 <1>        0.000
     41 H8         -5.8098   -6.2232   33.2799 H          1 <1>        0.000
@<TRIPOS>BOND
     1    2    1 2  
     2    1    3 am 
     3    3    4 1  
     4    6    5 1  
     5    5    7 1  
     6    5    8 1  
     7    6    9 1  
     8    6   10 1  
     9    3    6 1  
    10   11   12 1  
    11   11   13 1  
    12   11   14 1  
    13   12   15 1  
    14   12   16 1  
    15   11   17 1  
    16    5   12 1  
    17   18   19 1  
    18    1   18 1  
    19   20   21 1  
    20   20   22 1  
    21   20   23 1  
    22   18   20 1  
    23   24   25 1  
    24   24   28 1  
    25   25   26 2  
    26   26   27 1  
    27   27   28 2  
    28   24   29 1  
    29   26   30 1  
    30   28   31 1  
    31   18   27 1  
    32   33   32 1  
    33   33   34 1  
    34   32   35 1  
    35   32   36 1  
    36   33   37 1  
    37   33   38 1  
    38   34   39 1  
    39   34   40 1  
    40   34   41 1  
    41   25   32 1  
# Name:          No_7_1
# Creation time: Wed Mar 20 12:06:09 2024


@<TRIPOS>MOLECULE
000002_000001
   32    32     1     1     1
SMALL
USER_CHARGES


@<TRIPOS>ATOM
      1 C30        -7.8780   -2.2990   32.2090 C.2        1 <1>        0.060
      2 O32        -7.9100   -2.7650   31.0800 O.2        1 <1>        0.520
      3 N4         -8.9360   -2.3980   33.0750 N.am       1 <1>        0.500
      4 H          -8.8660   -2.0071   33.9928 H          1 <1>        0.000
      5 C1        -10.5890   -4.0590   33.7630 C.3        1 <1>        0.150
      6 C2        -10.1560   -3.0670   32.6670 C.3        1 <1>        0.020
      7 H1         -9.7951   -4.8049   33.9160 H          1 <1>        0.000
      8 H3        -10.7660   -3.5140   34.7020 H          1 <1>        0.000
      9 H4         -9.9791   -3.6127   31.7285 H          1 <1>        0.000
     10 H6        -10.9498   -2.3212   32.5130 H          1 <1>        0.000
     11 N1        -12.6950   -5.1340   34.5130 N.4        1 <1>        0.270
     12 C1        -11.8840   -4.7700   33.3300 C.3        1 <1>        0.060
     13 H2        -12.1901   -5.7539   35.1269 H          1 <1>        0.000
     14 H3        -12.9510   -4.3190   35.0480 H          1 <1>        0.000
     15 H5        -12.4486   -4.0945   32.6705 H          1 <1>        0.000
     16 H6        -11.6130   -5.6690   32.7570 H          1 <1>        0.000
     17 H1        -13.5471   -5.6011   34.2450 H          1 <1>        0.000
     18 C1         -6.6870   -1.5580   32.7430 C.3        1 <1>        0.010
     19 H3         -6.9861   -0.9658   33.6204 H          1 <1>        0.000
     20 N1         -6.1610   -0.6620   31.7030 N.4        1 <1>        0.500
     21 H1         -6.8243   -0.5990   30.9466 H          1 <1>        0.000
     22 H2         -5.2879   -1.0271   31.3559 H          1 <1>        0.000
     23 H3         -6.0100    0.2542   32.0951 H          1 <1>        0.000
     24 N1         -4.3460   -2.3090   33.2260 N.pl3      1 <1>        0.750
     25 C1         -5.6240   -2.5410   33.1410 C.2        1 <1>        0.070
     26 C2         -5.8250   -3.8180   33.4740 C.2        1 <1>        0.090
     27 C3         -4.4940   -4.3580   33.7790 C.2        1 <1>        0.070
     28 C4         -3.6470   -3.3420   33.5960 C.2        1 <1>        0.040
     29 H1         -3.9270   -1.3911   33.0190 H          1 <1>        0.000
     30 H3         -6.7739   -4.3510   33.5120 H          1 <1>        0.000
     31 H4         -4.2529   -5.3734   34.0901 H          1 <1>        0.000
     32 H5         -2.5672   -3.3800   33.7320 H          1 <1>        0.000
@<TRIPOS>BOND
     1    2    1 2  
     2    1    3 am 
     3    3    4 1  
     4    6    5 1  
     5    5    7 1  
     6    5    8 1  
     7    6    9 1  
     8    6   10 1  
     9    3    6 1  
    10   11   12 1  
    11   11   13 1  
    12   11   14 1  
    13   12   15 1  
    14   12   16 1  
    15   11   17 1  
    16    5   12 1  
    17   18   19 1  
    18    1   18 1  
    19   20   21 1  
    20   20   22 1  
    21   20   23 1  
    22   18   20 1  
    23   24   25 1  
    24   24   28 1  
    25   25   26 2  
    26   26   27 1  
    27   27   28 2  
    28   24   29 1  
    29   26   30 1  
    30   27   31 1  
    31   28   32 1  
    32   18   25 1  
# Name:          No_6_178
# Creation time: Wed Mar 20 12:06:09 2024


@<TRIPOS>MOLECULE
000002_000002
   32    32     1     1     1
SMALL
USER_CHARGES


@<TRIPOS>ATOM
      1 C30        -7.8780   -2.2990   32.2090 C.2        1 <1>        0.060
      2 O32        -7.9100   -2.7650   31.0800 O.2        1 <1>        0.520
      3 N4         -8.9360   -2.3980   33.0750 N.am       1 <1>        0.500
      4 H          -8.8660   -2.0071   33.9928 H          1 <1>        0.000
      5 C1        -10.5890   -4.0590   33.7630 C.3        1 <1>        0.150
      6 C2        -10.1560   -3.0670   32.6670 C.3        1 <1>        0.020
      7 H1         -9.7951   -4.8049   33.9160 H          1 <1>        0.000
      8 H3        -10.7660   -3.5140   34.7020 H          1 <1>        0.000
      9 H4         -9.9791   -3.6127   31.7285 H          1 <1>        0.000
     10 H6        -10.9498   -2.3212   32.5130 H          1 <1>        0.000
     11 N1        -12.6950   -5.1340   34.5130 N.4        1 <1>        0.270
     12 C1        -11.8840   -4.7700   33.3300 C.3        1 <1>        0.060
     13 H2        -12.1901   -5.7539   35.1269 H          1 <1>        0.000
     14 H3        -12.9510   -4.3190   35.0480 H          1 <1>        0.000
     15 H5        -12.4486   -4.0945   32.6705 H          1 <1>        0.000
     16 H6        -11.6130   -5.6690   32.7570 H          1 <1>        0.000
     17 H1        -13.5471   -5.6011   34.2450 H          1 <1>        0.000
     18 C1         -6.6870   -1.5580   32.7430 C.3        1 <1>        0.010
     19 H3         -6.9861   -0.9658   33.6204 H          1 <1>        0.000
     20 N1         -6.1610   -0.6620   31.7030 N.4        1 <1>        0.500
     21 H1         -6.8243   -0.5990   30.9466 H          1 <1>        0.000
     22 H2         -5.2879   -1.0271   31.3559 H          1 <1>        0.000
     23 H3         -6.0100    0.2542   32.0951 H          1 <1>        0.000
     24 N1         -4.3460   -2.3090   33.2260 N.pl3      1 <1>        0.750
     25 C1         -5.6240   -2.5410   33.1410 C.2        1 <1>        0.070
     26 C2         -5.8250   -3.8180   33.4740 C.2        1 <1>        0.090
     27 C3         -4.4940   -4.3580   33.7790 C.2        1 <1>        0.070
     28 C4         -3.6470   -3.3420   33.5960 C.2        1 <1>        0.040
     29 H1         -3.9270   -1.3911   33.0190 H          1 <1>        0.000
     30 H3         -6.7739   -4.3510   33.5120 H          1 <1>        0.000
     31 H4         -4.2529   -5.3734   34.0901 H          1 <1>        0.000
     32 H5         -2.5672   -3.3800   33.7320 H          1 <1>        0.000
@<TRIPOS>BOND
     1    2    1 2  
     2    1    3 am 
     3    3    4 1  
     4    6    5 1  
     5    5    7 1  
     6    5    8 1  
     7    6    9 1  
     8    6   10 1  
     9    3    6 1  
    10   11   12 1  
    11   11   13 1  
    12   11   14 1  
    13   12   15 1  
    14   12   16 1  
    15   11   17 1  
    16    5   12 1  
    17   18   19 1  
    18    1   18 1  
    19   20   21 1  
    20   20   22 1  
    21   20   23 1  
    22   18   20 1  
    23   24   25 1  
    24   24   28 1  
    25   25   26 2  
    26   26   27 1  
    27   27   28 2  
    28   24   29 1  
    29   26   30 1  
    30   27   31 1  
    31   28   32 1  
    32   18   25 1  
# Name:          No_7_114
# Creation time: Wed Mar 20 12:06:09 2024


@<TRIPOS>MOLECULE
000003_000001
   45    45     1     1     1
SMALL
USER_CHARGES


@<TRIPOS>ATOM
      1 C30        -7.8780   -2.2990   32.2090 C.2        1 <1>        0.060
      2 O32        -7.9100   -2.7650   31.0800 O.2        1 <1>        0.520
      3 N4         -8.9360   -2.3980   33.0750 N.am       1 <1>        0.500
      4 H          -8.8660   -2.0071   33.9928 H          1 <1>        0.000
      5 C1        -10.5890   -4.0590   33.7630 C.3        1 <1>        0.150
      6 C2        -10.1560   -3.0670   32.6670 C.3        1 <1>        0.020
      7 H1         -9.7951   -4.8049   33.9160 H          1 <1>        0.000
      8 H3        -10.7660   -3.5140   34.7020 H          1 <1>        0.000
      9 H4         -9.9791   -3.6127   31.7285 H          1 <1>        0.000
     10 H6        -10.9498   -2.3212   32.5130 H          1 <1>        0.000
     11 N1        -13.0680   -4.0510   33.8510 N.4        1 <1>        0.280
     12 C1        -11.8840   -4.7700   33.3300 C.3        1 <1>        0.060
     13 H2        -13.0570   -4.0090   34.8581 H          1 <1>        0.000
     14 H3        -13.1030   -3.1038   33.5079 H          1 <1>        0.000
     15 H5        -11.9100   -4.8070   32.2309 H          1 <1>        0.000
     16 H6        -11.8610   -5.8009   33.7130 H          1 <1>        0.000
     17 H1        -13.9247   -4.5054   33.5758 H          1 <1>        0.000
     18 C1         -6.6870   -1.5580   32.7430 C.3        1 <1>        0.050
     19 C2         -5.9320   -2.4500   33.7250 C.3        1 <1>        0.040
     20 H7         -6.5968   -2.7229   34.5578 H          1 <1>        0.000
     21 H8         -5.0592   -1.9071   34.1169 H          1 <1>        0.000
     22 C1         -4.4590   -4.2590   33.8170 C.3        1 <1>       -0.020
     23 C2         -3.9920   -5.5230   33.1030 C.ar       1 <1>        0.060
     24 C3         -3.2510   -6.4840   33.7960 C.ar       1 <1>        0.220
     25 C4         -2.8230   -7.6430   33.1410 C.ar       1 <1>        0.200
     26 C5         -3.1370   -7.8410   31.7930 C.ar       1 <1>        0.200
     27 C6         -3.8790   -6.8790   31.1000 C.ar       1 <1>        0.200
     28 C7         -4.3060   -5.7200   31.7550 C.ar       1 <1>        0.200
     29 O8         -5.4950   -3.6350   33.0550 O.3        1 <1>        0.010
     30 H1         -3.6130   -3.5640   33.9230 H          1 <1>        0.000
     31 H2         -4.8441   -4.5221   34.8132 H          1 <1>        0.000
     32 H3         -3.0070   -6.3310   34.8410 H          1 <1>        0.000
     33 H4         -2.2484   -8.3885   33.6786 H          1 <1>        0.000
     34 H5         -2.8049   -8.7391   31.2849 H          1 <1>        0.000
     35 H6         -4.1220   -7.0330   30.0549 H          1 <1>        0.000
     36 H7         -4.8810   -4.9750   31.2170 H          1 <1>        0.000
     37 O1         -5.8220   -1.2030   31.6610 O.3        1 <1>        0.330
     38 H1         -5.2679   -0.5169   32.0141 H          1 <1>        0.000
     39 N1         -8.1800    0.4210   32.6590 N.4        1 <1>        0.030
     40 C1         -7.1570   -0.2820   33.4650 C.3        1 <1>       -0.030
     41 H2         -8.4980    1.2591   33.1200 H          1 <1>        0.000
     42 H3         -7.8178    0.6892   31.7574 H          1 <1>        0.000
     43 H6         -7.5679   -0.5669   34.4448 H          1 <1>        0.000
     44 H7         -6.2841    0.3669   33.6290 H          1 <1>        0.000
     45 H1         -8.9870   -0.1620   32.5010 H          1 <1>        0.000
@<TRIPOS>BOND
     1    2    1 2  
     2    1    3 am 
     3    3    4 1  
     4    6    5 1  
     5    5    7 1  
     6    5    8 1  
     7    6    9 1  
     8    6   10 1  
     9    3    6 1  
    10   11   12 1  
    11   11   13 1  
    12   11   14 1  
    13   12   15 1  
    14   12   16 1  
    15   11   17 1  
    16    5   12 1  
    17   19   18 1  
    18   19   20 1  
    19   19   21 1  
    20    1   18 1  
    21   22   23 1  
    22   23   24 ar 
    23   23   28 ar 
    24   28   27 ar 
    25   27   26 ar 
    26   26   25 ar 
    27   25   24 ar 
    28   22   29 1  
    29   22   30 1  
    30   22   31 1  
    31   24   32 1  
    32   25   33 1  
    33   26   34 1  
    34   27   35 1  
    35   28   36 1  
    36   19   29 1  
    37   37   38 1  
    38   18   37 1  
    39   39   40 1  
    40   39   41 1  
    41   39   42 1  
    42   40   43 1  
    43   40   44 1  
    44   39   45 1  
    45   18   40 1  
# Name:          No_7_113
# Creation time: Wed Mar 20 12:06:09 2024


@<TRIPOS>MOLECULE
000003_000002
   45    45     1     1     1
SMALL
USER_CHARGES


@<TRIPOS>ATOM
      1 C30        -7.8780   -2.2990   32.2090 C.2        1 <1>        0.060
      2 O32        -7.9100   -2.7650   31.0800 O.2        1 <1>        0.520
      3 N4         -8.9360   -2.3980   33.0750 N.am       1 <1>        0.500
      4 H          -8.8660   -2.0071   33.9928 H          1 <1>        0.000
      5 C1        -10.5890   -4.0590   33.7630 C.3        1 <1>        0.150
      6 C2        -10.1560   -3.0670   32.6670 C.3        1 <1>        0.020
      7 H1         -9.7951   -4.8049   33.9160 H          1 <1>        0.000
      8 H3        -10.7660   -3.5140   34.7020 H          1 <1>        0.000
      9 H4         -9.9791   -3.6127   31.7285 H          1 <1>        0.000
     10 H6        -10.9498   -2.3212   32.5130 H          1 <1>        0.000
     11 N1        -13.0680   -4.0510   33.8510 N.4        1 <1>        0.280
     12 C1        -11.8840   -4.7700   33.3300 C.3        1 <1>        0.060
     13 H2        -13.0570   -4.0090   34.8581 H          1 <1>        0.000
     14 H3        -13.1030   -3.1038   33.5079 H          1 <1>        0.000
     15 H5        -11.9100   -4.8070   32.2309 H          1 <1>        0.000
     16 H6        -11.8610   -5.8009   33.7130 H          1 <1>        0.000
     17 H1        -13.9247   -4.5054   33.5758 H          1 <1>        0.000
     18 C1         -6.6870   -1.5580   32.7430 C.3        1 <1>        0.050
     19 C2         -5.9320   -2.4500   33.7250 C.3        1 <1>        0.040
     20 H7         -6.5968   -2.7229   34.5578 H          1 <1>        0.000
     21 H8         -5.0592   -1.9071   34.1169 H          1 <1>        0.000
     22 C1         -4.4590   -4.2590   33.8170 C.3        1 <1>       -0.020
     23 C2         -3.9920   -5.5230   33.1030 C.ar       1 <1>        0.060
     24 C3         -3.2510   -6.4840   33.7960 C.ar       1 <1>        0.220
     25 C4         -2.8230   -7.6430   33.1410 C.ar       1 <1>        0.200
     26 C5         -3.1370   -7.8410   31.7930 C.ar       1 <1>        0.200
     27 C6         -3.8790   -6.8790   31.1000 C.ar       1 <1>        0.200
     28 C7         -4.3060   -5.7200   31.7550 C.ar       1 <1>        0.200
     29 O8         -5.4950   -3.6350   33.0550 O.3        1 <1>        0.010
     30 H1         -3.6130   -3.5640   33.9230 H          1 <1>        0.000
     31 H2         -4.8441   -4.5221   34.8132 H          1 <1>        0.000
     32 H3         -3.0070   -6.3310   34.8410 H          1 <1>        0.000
     33 H4         -2.2484   -8.3885   33.6786 H          1 <1>        0.000
     34 H5         -2.8049   -8.7391   31.2849 H          1 <1>        0.000
     35 H6         -4.1220   -7.0330   30.0549 H          1 <1>        0.000
     36 H7         -4.8810   -4.9750   31.2170 H          1 <1>        0.000
     37 O1         -5.8220   -1.2030   31.6610 O.3        1 <1>        0.330
     38 H1         -5.2679   -0.5169   32.0141 H          1 <1>        0.000
     39 N1         -7.8300    0.6320   32.5150 N.4        1 <1>        0.070
     40 C1         -7.1570   -0.2820   33.4650 C.3        1 <1>       -0.030
     41 H2         -8.1430    1.4731   32.9740 H          1 <1>        0.000
     42 H3         -7.2104    0.9058   31.7685 H          1 <1>        0.000
     43 H6         -7.8460   -0.5720   34.2720 H          1 <1>        0.000
     44 H7         -6.2803    0.2078   33.9138 H          1 <1>        0.000
     45 H1         -8.6360    0.1960   32.0950 H          1 <1>        0.000
@<TRIPOS>BOND
     1    2    1 2  
     2    1    3 am 
     3    3    4 1  
     4    6    5 1  
     5    5    7 1  
     6    5    8 1  
     7    6    9 1  
     8    6   10 1  
     9    3    6 1  
    10   11   12 1  
    11   11   13 1  
    12   11   14 1  
    13   12   15 1  
    14   12   16 1  
    15   11   17 1  
    16    5   12 1  
    17   19   18 1  
    18   19   20 1  
    19   19   21 1  
    20    1   18 1  
    21   22   23 1  
    22   23   24 ar 
    23   23   28 ar 
    24   28   27 ar 
    25   27   26 ar 
    26   26   25 ar 
    27   25   24 ar 
    28   22   29 1  
    29   22   30 1  
    30   22   31 1  
    31   24   32 1  
    32   25   33 1  
    33   26   34 1  
    34   27   35 1  
    35   28   36 1  
    36   19   29 1  
    37   37   38 1  
    38   18   37 1  
    39   39   40 1  
    40   39   41 1  
    41   39   42 1  
    42   40   43 1  
    43   40   44 1  
    44   39   45 1  
    45   18   40 1  
# Name:          No_7_112
# Creation time: Wed Mar 20 12:06:09 2024


@<TRIPOS>MOLECULE
000003_000003
   45    45     1     1     1
SMALL
USER_CHARGES


@<TRIPOS>ATOM
      1 C30        -7.8780   -2.2990   32.2090 C.2        1 <1>        0.060
      2 O32        -7.9100   -2.7650   31.0800 O.2        1 <1>        0.520
      3 N4         -8.9360   -2.3980   33.0750 N.am       1 <1>        0.500
      4 H          -8.8660   -2.0071   33.9928 H          1 <1>        0.000
      5 C1        -10.5890   -4.0590   33.7630 C.3        1 <1>        0.150
      6 C2        -10.1560   -3.0670   32.6670 C.3        1 <1>        0.020
      7 H1         -9.7951   -4.8049   33.9160 H          1 <1>        0.000
      8 H3        -10.7660   -3.5140   34.7020 H          1 <1>        0.000
      9 H4         -9.9791   -3.6127   31.7285 H          1 <1>        0.000
     10 H6        -10.9498   -2.3212   32.5130 H          1 <1>        0.000
     11 N1        -13.0680   -4.0510   33.8510 N.4        1 <1>        0.280
     12 C1        -11.8840   -4.7700   33.3300 C.3        1 <1>        0.060
     13 H2        -13.0570   -4.0090   34.8581 H          1 <1>        0.000
     14 H3        -13.1030   -3.1038   33.5079 H          1 <1>        0.000
     15 H5        -11.9100   -4.8070   32.2309 H          1 <1>        0.000
     16 H6        -11.8610   -5.8009   33.7130 H          1 <1>        0.000
     17 H1        -13.9247   -4.5054   33.5758 H          1 <1>        0.000
     18 C1         -6.6870   -1.5580   32.7430 C.3        1 <1>        0.050
     19 C2         -5.9320   -2.4500   33.7250 C.3        1 <1>        0.040
     20 H7         -6.5968   -2.7229   34.5578 H          1 <1>        0.000
     21 H8         -5.0592   -1.9071   34.1169 H          1 <1>        0.000
     22 C1         -4.4590   -4.2590   33.8170 C.3        1 <1>       -0.020
     23 C2         -3.9920   -5.5230   33.1030 C.ar       1 <1>        0.060
     24 C3         -3.2510   -6.4840   33.7960 C.ar       1 <1>        0.220
     25 C4         -2.8230   -7.6430   33.1410 C.ar       1 <1>        0.200
     26 C5         -3.1370   -7.8410   31.7930 C.ar       1 <1>        0.200
     27 C6         -3.8790   -6.8790   31.1000 C.ar       1 <1>        0.200
     28 C7         -4.3060   -5.7200   31.7550 C.ar       1 <1>        0.200
     29 O8         -5.4950   -3.6350   33.0550 O.3        1 <1>        0.010
     30 H1         -3.6130   -3.5640   33.9230 H          1 <1>        0.000
     31 H2         -4.8441   -4.5221   34.8132 H          1 <1>        0.000
     32 H3         -3.0070   -6.3310   34.8410 H          1 <1>        0.000
     33 H4         -2.2484   -8.3885   33.6786 H          1 <1>        0.000
     34 H5         -2.8049   -8.7391   31.2849 H          1 <1>        0.000
     35 H6         -4.1220   -7.0330   30.0549 H          1 <1>        0.000
     36 H7         -4.8810   -4.9750   31.2170 H          1 <1>        0.000
     37 O1         -5.8220   -1.2030   31.6610 O.3        1 <1>        0.330
     38 H1         -5.2679   -0.5169   32.0141 H          1 <1>        0.000
     39 N1         -7.4980    0.7720   32.4830 N.4        1 <1>        0.070
     40 C1         -7.1570   -0.2820   33.4650 C.3        1 <1>       -0.030
     41 H2         -7.8069    1.6147   32.9418 H          1 <1>        0.000
     42 H3         -6.7028    1.0120   31.9119 H          1 <1>        0.000
     43 H6         -8.0341   -0.5320   34.0800 H          1 <1>        0.000
     44 H7         -6.3508    0.0591   34.1311 H          1 <1>        0.000
     45 H1         -8.2367    0.4737   31.8654 H          1 <1>        0.000
@<TRIPOS>BOND
     1    2    1 2  
     2    1    3 am 
     3    3    4 1  
     4    6    5 1  
     5    5    7 1  
     6    5    8 1  
     7    6    9 1  
     8    6   10 1  
     9    3    6 1  
    10   11   12 1  
    11   11   13 1  
    12   11   14 1  
    13   12   15 1  
    14   12   16 1  
    15   11   17 1  
    16    5   12 1  
    17   19   18 1  
    18   19   20 1  
    19   19   21 1  
    20    1   18 1  
    21   22   23 1  
    22   23   24 ar 
    23   23   28 ar 
    24   28   27 ar 
    25   27   26 ar 
    26   26   25 ar 
    27   25   24 ar 
    28   22   29 1  
    29   22   30 1  
    30   22   31 1  
    31   24   32 1  
    32   25   33 1  
    33   26   34 1  
    34   27   35 1  
    35   28   36 1  
    36   19   29 1  
    37   37   38 1  
    38   18   37 1  
    39   39   40 1  
    40   39   41 1  
    41   39   42 1  
    42   40   43 1  
    43   40   44 1  
    44   39   45 1  
    45   18   40 1  
# Name:          No_7_94
# Creation time: Wed Mar 20 12:06:09 2024


@<TRIPOS>MOLECULE
000004_000001
   44    45     1     1     1
SMALL
USER_CHARGES


@<TRIPOS>ATOM
      1 C25        -3.1140   -3.7990   30.2500 C.2        1 <1>        0.080
      2 O2         -4.1370   -4.0120   29.6070 O.2        1 <1>        0.520
      3 N3         -3.0360   -3.9860   31.6190 N.am       1 <1>        0.020
      4 H          -2.1819   -3.7910   32.1011 H          1 <1>        0.000
      5 O1         -0.3150   -2.9020   28.0200 O.3        1 <1>        0.190
      6 C1         -1.5190   -3.3950   28.3290 C.2        1 <1>        0.070
      7 C2         -1.8700   -3.3410   29.6150 C.2        1 <1>        0.070
      8 C3         -0.7130   -2.7140   30.2470 C.2        1 <1>        0.040
      9 C4          0.1170   -2.5080   29.2230 C.2        1 <1>        0.040
     10 H1         -2.1720   -3.8160   27.5660 H          1 <1>        0.000
     11 H3         -0.5691   -2.4741   31.2995 H          1 <1>        0.000
     12 C1         -4.1900   -4.4640   32.3560 C.3        1 <1>        0.010
     13 H1         -4.9525   -4.8238   31.6495 H          1 <1>        0.000
     14 H2         -4.6061   -3.6428   32.9581 H          1 <1>        0.000
     15 C1          1.4650   -1.8710   29.4000 C.3        1 <1>       -0.120
     16 H2          2.2160   -2.6500   29.5980 H          1 <1>        0.000
     17 O3          1.8170   -1.1620   28.2090 O.3        1 <1>        0.210
     18 H4          1.4310   -1.1706   30.2475 H          1 <1>        0.000
     19 H6          1.1733   -0.4863   28.0311 H          1 <1>        0.000
     20 C1         -3.7650   -5.6170   33.2840 C.3        1 <1>        0.020
     21 H4         -4.6591   -6.1531   33.6350 H          1 <1>        0.000
     22 C1         -2.8550   -6.5890   32.5110 C.3        1 <1>       -0.010
     23 H2         -1.8569   -6.1420   32.3930 H          1 <1>        0.000
     24 H4         -3.2870   -6.7870   31.5190 H          1 <1>        0.000
     25 N1         -3.0340   -5.0730   34.4370 N.4        1 <1>        0.960
     26 H1         -3.1460   -4.0716   34.4640 H          1 <1>        0.000
     27 H2         -2.0558   -5.3010   34.3520 H          1 <1>        0.000
     28 H3         -3.3999   -5.4749   35.2859 H          1 <1>        0.000
     29 C1         -1.6510   -8.5870   32.7300 C.3        1 <1>        0.010
     30 H2         -1.5740   -9.5289   33.2929 H          1 <1>        0.000
     31 O3         -2.7440   -7.8170   33.2360 O.3        1 <1>       -0.010
     32 H4         -1.8200   -8.8090   31.6660 H          1 <1>        0.000
     33 C           1.0430   -6.3060   34.1680 C.ar       1 <1>        0.220
     34 C           2.0100   -6.3480   33.1650 C.ar       1 <1>        0.120
     35 C           1.7930   -7.1140   32.0200 C.ar       1 <1>        0.080
     36 C           0.6100   -7.8370   31.8800 C.ar       1 <1>        0.120
     37 C          -0.3570   -7.7950   32.8830 C.ar       1 <1>        0.150
     38 C          -0.1400   -7.0290   34.0280 C.ar       1 <1>        0.160
     39 O7          3.0310   -5.4050   33.1430 O.3        1 <1>        0.350
     40 H1          1.2119   -5.7102   35.0577 H          1 <1>        0.000
     41 H2          2.5445   -7.1460   31.2395 H          1 <1>        0.000
     42 H3          0.4411   -8.4328   30.9903 H          1 <1>        0.000
     43 H5         -0.8915   -6.9960   34.8085 H          1 <1>        0.000
     44 H6          3.0670   -4.9590   33.9810 H          1 <1>        0.000
@<TRIPOS>BOND
     1    2    1 2  
     2    1    3 am 
     3    3    4 1  
     4    5    6 1  
     5    5    9 1  
     6    6    7 2  
     7    7    8 1  
     8    8    9 2  
     9    6   10 1  
    10    8   11 1  
    11    1    7 1  
    12   12   13 1  
    13   12   14 1  
    14    3   12 1  
    15   15   16 1  
    16   15   17 1  
    17   15   18 1  
    18   17   19 1  
    19    9   15 1  
    20   20   21 1  
    21   12   20 1  
    22   22   23 1  
    23   22   24 1  
    24   20   22 1  
    25   25   26 1  
    26   25   27 1  
    27   25   28 1  
    28   20   25 1  
    29   29   30 1  
    30   29   31 1  
    31   29   32 1  
    32   22   31 1  
    33   33   34 ar 
    34   33   38 ar 
    35   38   37 ar 
    36   37   36 ar 
    37   36   35 ar 
    38   35   34 ar 
    39   34   39 1  
    40   33   40 1  
    41   35   41 1  
    42   36   42 1  
    43   38   43 1  
    44   39   44 1  
    45   29   37 1  
# Name:          No_7_95
# Creation time: Wed Mar 20 12:06:09 2024


@<TRIPOS>MOLECULE
000004_000002
   44    45     1     1     1
SMALL
USER_CHARGES


@<TRIPOS>ATOM
      1 C25        -3.1140   -3.7990   30.2500 C.2        1 <1>        0.080
      2 O2         -4.1370   -4.0120   29.6070 O.2        1 <1>        0.520
      3 N3         -3.0360   -3.9860   31.6190 N.am       1 <1>        0.020
      4 H          -2.1819   -3.7910   32.1011 H          1 <1>        0.000
      5 O1         -0.3150   -2.9020   28.0200 O.3        1 <1>        0.190
      6 C1         -1.5190   -3.3950   28.3290 C.2        1 <1>        0.070
      7 C2         -1.8700   -3.3410   29.6150 C.2        1 <1>        0.070
      8 C3         -0.7130   -2.7140   30.2470 C.2        1 <1>        0.040
      9 C4          0.1170   -2.5080   29.2230 C.2        1 <1>        0.040
     10 H1         -2.1720   -3.8160   27.5660 H          1 <1>        0.000
     11 H3         -0.5691   -2.4741   31.2995 H          1 <1>        0.000
     12 C1         -4.1900   -4.4640   32.3560 C.3        1 <1>        0.010
     13 H1         -4.9525   -4.8238   31.6495 H          1 <1>        0.000
     14 H2         -4.6061   -3.6428   32.9581 H          1 <1>        0.000
     15 C1          1.4650   -1.8710   29.4000 C.3        1 <1>       -0.120
     16 H2          2.2160   -2.6500   29.5980 H          1 <1>        0.000
     17 O3          1.8170   -1.1620   28.2090 O.3        1 <1>        0.210
     18 H4          1.4310   -1.1706   30.2475 H          1 <1>        0.000
     19 H6          1.1733   -0.4863   28.0311 H          1 <1>        0.000
     20 C1         -3.7650   -5.6170   33.2840 C.3        1 <1>        0.020
     21 H4         -4.6591   -6.1531   33.6350 H          1 <1>        0.000
     22 C1         -2.8550   -6.5890   32.5110 C.3        1 <1>       -0.010
     23 H2         -1.8569   -6.1420   32.3930 H          1 <1>        0.000
     24 H4         -3.2870   -6.7870   31.5190 H          1 <1>        0.000
     25 N1         -3.0340   -5.0730   34.4370 N.4        1 <1>        0.960
     26 H1         -3.1460   -4.0716   34.4640 H          1 <1>        0.000
     27 H2         -2.0558   -5.3010   34.3520 H          1 <1>        0.000
     28 H3         -3.3999   -5.4749   35.2859 H          1 <1>        0.000
     29 C1         -1.6510   -8.5870   32.7300 C.3        1 <1>        0.010
     30 H2         -1.5740   -9.5289   33.2929 H          1 <1>        0.000
     31 O3         -2.7440   -7.8170   33.2360 O.3        1 <1>       -0.010
     32 H4         -1.8200   -8.8090   31.6660 H          1 <1>        0.000
     33 C           1.4190   -6.9410   34.2790 C.ar       1 <1>        0.200
     34 C           2.0090   -6.3480   33.1650 C.ar       1 <1>        0.120
     35 C           1.4170   -6.4780   31.9090 C.ar       1 <1>        0.080
     36 C           0.2340   -7.2020   31.7690 C.ar       1 <1>        0.180
     37 C          -0.3570   -7.7950   32.8830 C.ar       1 <1>        0.150
     38 C           0.2350   -7.6640   34.1390 C.ar       1 <1>        0.100
     39 O7          2.9930   -5.3790   33.3320 O.3        1 <1>        0.290
     40 H1          1.8791   -6.8390   35.2552 H          1 <1>        0.000
     41 H2          1.8772   -6.0168   31.0426 H          1 <1>        0.000
     42 H3         -0.2261   -7.3040   30.7928 H          1 <1>        0.000
     43 H5         -0.2242   -8.1262   35.0054 H          1 <1>        0.000
     44 H6          3.3080   -5.3990   34.2280 H          1 <1>        0.000
@<TRIPOS>BOND
     1    2    1 2  
     2    1    3 am 
     3    3    4 1  
     4    5    6 1  
     5    5    9 1  
     6    6    7 2  
     7    7    8 1  
     8    8    9 2  
     9    6   10 1  
    10    8   11 1  
    11    1    7 1  
    12   12   13 1  
    13   12   14 1  
    14    3   12 1  
    15   15   16 1  
    16   15   17 1  
    17   15   18 1  
    18   17   19 1  
    19    9   15 1  
    20   20   21 1  
    21   12   20 1  
    22   22   23 1  
    23   22   24 1  
    24   20   22 1  
    25   25   26 1  
    26   25   27 1  
    27   25   28 1  
    28   20   25 1  
    29   29   30 1  
    30   29   31 1  
    31   29   32 1  
    32   22   31 1  
    33   33   34 ar 
    34   33   38 ar 
    35   38   37 ar 
    36   37   36 ar 
    37   36   35 ar 
    38   35   34 ar 
    39   34   39 1  
    40   33   40 1  
    41   35   41 1  
    42   36   42 1  
    43   38   43 1  
    44   39   44 1  
    45   29   37 1  
# Name:          No_7_96
# Creation time: Wed Mar 20 12:06:09 2024


@<TRIPOS>MOLECULE
000004_000003
   44    45     1     1     1
SMALL
USER_CHARGES


@<TRIPOS>ATOM
      1 C25        -3.1140   -3.7990   30.2500 C.2        1 <1>        0.080
      2 O2         -4.1370   -4.0120   29.6070 O.2        1 <1>        0.520
      3 N3         -3.0360   -3.9860   31.6190 N.am       1 <1>        0.020
      4 H          -2.1819   -3.7910   32.1011 H          1 <1>        0.000
      5 O1         -0.3150   -2.9020   28.0200 O.3        1 <1>        0.190
      6 C1         -1.5190   -3.3950   28.3290 C.2        1 <1>        0.070
      7 C2         -1.8700   -3.3410   29.6150 C.2        1 <1>        0.070
      8 C3         -0.7130   -2.7140   30.2470 C.2        1 <1>        0.040
      9 C4          0.1170   -2.5080   29.2230 C.2        1 <1>        0.040
     10 H1         -2.1720   -3.8160   27.5660 H          1 <1>        0.000
     11 H3         -0.5691   -2.4741   31.2995 H          1 <1>        0.000
     12 C1         -4.1900   -4.4640   32.3560 C.3        1 <1>        0.010
     13 H1         -4.9525   -4.8238   31.6495 H          1 <1>        0.000
     14 H2         -4.6061   -3.6428   32.9581 H          1 <1>        0.000
     15 C1          1.4650   -1.8710   29.4000 C.3        1 <1>       -0.120
     16 H2          2.2160   -2.6500   29.5980 H          1 <1>        0.000
     17 O3          1.8170   -1.1620   28.2090 O.3        1 <1>        0.210
     18 H4          1.4310   -1.1706   30.2475 H          1 <1>        0.000
     19 H6          1.1733   -0.4863   28.0311 H          1 <1>        0.000
     20 C1         -3.7650   -5.6170   33.2840 C.3        1 <1>        0.020
     21 H4         -4.6591   -6.1531   33.6350 H          1 <1>        0.000
     22 C1         -2.8550   -6.5890   32.5110 C.3        1 <1>       -0.010
     23 H2         -1.8569   -6.1420   32.3930 H          1 <1>        0.000
     24 H4         -3.2870   -6.7870   31.5190 H          1 <1>        0.000
     25 N1         -3.0340   -5.0730   34.4370 N.4        1 <1>        0.960
     26 H1         -3.1460   -4.0716   34.4640 H          1 <1>        0.000
     27 H2         -2.0558   -5.3010   34.3520 H          1 <1>        0.000
     28 H3         -3.3999   -5.4749   35.2859 H          1 <1>        0.000
     29 C1         -1.6510   -8.5870   32.7300 C.3        1 <1>        0.010
     30 H2         -1.5740   -9.5289   33.2929 H          1 <1>        0.000
     31 O3         -2.7440   -7.8170   33.2360 O.3        1 <1>       -0.010
     32 H4         -1.8200   -8.8090   31.6660 H          1 <1>        0.000
     33 C           1.4170   -6.4780   31.9100 C.ar       1 <1>        0.080
     34 C           2.0090   -6.3470   33.1650 C.ar       1 <1>        0.120
     35 C           1.4180   -6.9410   34.2800 C.ar       1 <1>        0.200
     36 C           0.2350   -7.6640   34.1390 C.ar       1 <1>        0.100
     37 C          -0.3570   -7.7950   32.8830 C.ar       1 <1>        0.150
     38 C           0.2340   -7.2020   31.7690 C.ar       1 <1>        0.180
     39 O7          3.3240   -5.9100   33.2710 O.3        1 <1>        0.210
     40 H1          1.8769   -6.0171   31.0433 H          1 <1>        0.000
     41 H2          1.8789   -6.8390   35.2558 H          1 <1>        0.000
     42 H3         -0.2242   -8.1262   35.0054 H          1 <1>        0.000
     43 H5         -0.2261   -7.3040   30.7928 H          1 <1>        0.000
     44 H6          3.5989   -5.5291   32.4453 H          1 <1>        0.000
@<TRIPOS>BOND
     1    2    1 2  
     2    1    3 am 
     3    3    4 1  
     4    5    6 1  
     5    5    9 1  
     6    6    7 2  
     7    7    8 1  
     8    8    9 2  
     9    6   10 1  
    10    8   11 1  
    11    1    7 1  
    12   12   13 1  
    13   12   14 1  
    14    3   12 1  
    15   15   16 1  
    16   15   17 1  
    17   15   18 1  
    18   17   19 1  
    19    9   15 1  
    20   20   21 1  
    21   12   20 1  
    22   22   23 1  
    23   22   24 1  
    24   20   22 1  
    25   25   26 1  
    26   25   27 1  
    27   25   28 1  
    28   20   25 1  
    29   29   30 1  
    30   29   31 1  
    31   29   32 1  
    32   22   31 1  
    33   33   34 ar 
    34   33   38 ar 
    35   38   37 ar 
    36   37   36 ar 
    37   36   35 ar 
    38   35   34 ar 
    39   34   39 1  
    40   33   40 1  
    41   35   41 1  
    42   36   42 1  
    43   38   43 1  
    44   39   44 1  
    45   29   37 1  
# Name:          No_7_68
# Creation time: Wed Mar 20 12:06:09 2024


@<TRIPOS>MOLECULE
000005_000001
   38    39     1     1     1
SMALL
USER_CHARGES


@<TRIPOS>ATOM
      1 C30        -7.8780   -2.2990   32.2090 C.2        1 <1>        0.060
      2 O32        -7.9100   -2.7650   31.0800 O.2        1 <1>        0.520
      3 N4         -8.9360   -2.3980   33.0750 N.am       1 <1>        0.500
      4 H          -8.8660   -2.0071   33.9928 H          1 <1>        0.000
      5 C1        -10.5890   -4.0590   33.7630 C.3        1 <1>        0.150
      6 C2        -10.1560   -3.0670   32.6670 C.3        1 <1>        0.020
      7 H1         -9.7951   -4.8049   33.9160 H          1 <1>        0.000
      8 H3        -10.7660   -3.5140   34.7020 H          1 <1>        0.000
      9 H4         -9.9791   -3.6127   31.7285 H          1 <1>        0.000
     10 H6        -10.9498   -2.3212   32.5130 H          1 <1>        0.000
     11 N1        -12.6950   -5.1340   34.5130 N.4        1 <1>        0.270
     12 C1        -11.8840   -4.7700   33.3300 C.3        1 <1>        0.020
     13 H2        -12.1901   -5.7539   35.1269 H          1 <1>        0.000
     14 H3        -12.9510   -4.3190   35.0480 H          1 <1>        0.000
     15 H6        -11.6130   -5.6690   32.7570 H          1 <1>        0.000
     16 H1        -13.5471   -5.6011   34.2450 H          1 <1>        0.000
     17 C1         -6.6870   -1.5580   32.7430 C.3        1 <1>        0.010
     18 H1         -6.2931   -0.8872   31.9652 H          1 <1>        0.000
     19 H3         -6.9861   -0.9658   33.6204 H          1 <1>        0.000
     20 C1         -5.6240   -2.5410   33.1410 C.2        1 <1>        0.070
     21 C2         -5.0390   -3.4780   32.1120 C.ar       1 <1>        0.100
     22 C3         -4.9430   -3.0780   30.7760 C.ar       1 <1>        0.090
     23 C4         -4.4010   -3.9460   29.8230 C.ar       1 <1>        0.090
     24 C5         -3.9560   -5.2150   30.2070 C.ar       1 <1>        0.080
     25 C6         -4.0520   -5.6150   31.5430 C.ar       1 <1>        0.200
     26 C7         -4.5940   -4.7470   32.4960 C.ar       1 <1>        0.090
     27 O8         -5.2320   -2.5810   34.2960 O.2        1 <1>        0.080
     28 H2         -5.2879   -2.0942   30.4791 H          1 <1>        0.000
     29 H3         -4.3260   -3.6360   28.7870 H          1 <1>        0.000
     30 H4         -3.5361   -5.8879   29.4681 H          1 <1>        0.000
     31 H5         -3.7071   -6.5988   31.8399 H          1 <1>        0.000
     32 H6         -4.6680   -5.0570   33.5321 H          1 <1>        0.000
     33 N1        -12.2640   -3.5620   31.2230 N.pl3      1 <1>        0.540
     34 N2        -13.1890   -2.7180   30.7250 N.2        1 <1>        0.030
     35 N3        -14.1120   -2.5360   31.6860 N.2        1 <1>       -0.270
     36 N4        -13.7350   -3.3020   32.8200 N.2        1 <1>        0.390
     37 C1        -12.6540   -3.8470   32.4300 C.2        1 <1>        0.050
     38 H1        -11.4209   -3.9080   30.7430 H          1 <1>        0.000
@<TRIPOS>BOND
     1    2    1 2  
     2    1    3 am 
     3    3    4 1  
     4    6    5 1  
     5    5    7 1  
     6    5    8 1  
     7    6    9 1  
     8    6   10 1  
     9    3    6 1  
    10   11   12 1  
    11   11   13 1  
    12   11   14 1  
    13   12   15 1  
    14   11   16 1  
    15    5   12 1  
    16   17   18 1  
    17   17   19 1  
    18    1   17 1  
    19   20   21 1  
    20   21   22 ar 
    21   21   26 ar 
    22   26   25 ar 
    23   25   24 ar 
    24   24   23 ar 
    25   23   22 ar 
    26   20   27 2  
    27   22   28 1  
    28   23   29 1  
    29   24   30 1  
    30   25   31 1  
    31   26   32 1  
    32   17   20 1  
    33   33   34 1  
    34   33   37 1  
    35   34   35 2  
    36   35   36 1  
    37   36   37 2  
    38   33   38 1  
    39   12   37 1  
    
# Name:          No_4_99
# Creation time: Wed Mar 20 12:10:21 2024


@<TRIPOS>MOLECULE
000001_000001
   26    27     1     1     1
SMALL
USER_CHARGES


@<TRIPOS>ATOM
      1 C30        -7.8780   -2.2990   32.2090 C.2        1 <1>        0.060
      2 O32        -7.9100   -2.7650   31.0800 O.2        1 <1>        0.520
      3 N4         -8.9360   -2.3980   33.0750 N.am       1 <1>        0.540
      4 H          -9.7771   -2.8601   32.7940 H          1 <1>        0.000
      5 H          -8.8660   -2.0071   33.9928 H          1 <1>        0.000
      6 C1         -6.6870   -1.5580   32.7430 C.3        1 <1>        0.010
      7 O3         -7.0720   -0.2280   33.0970 O.3        1 <1>        0.500
      8 H4         -6.3011   -2.0769   33.6328 H          1 <1>        0.000
      9 H6         -7.7490   -0.2520   33.7630 H          1 <1>        0.000
     10 O1         -5.0340   -2.6150   31.1390 O.3        1 <1>        0.410
     11 C1         -5.6170   -1.5060   31.6910 C.2        1 <1>        0.040
     12 N1         -5.1460   -0.4230   31.2080 N.2        1 <1>        0.050
     13 C2         -3.4300    0.2150   29.5070 C.ar       1 <1>        0.210
     14 C3         -2.5370   -0.4280   28.6380 C.ar       1 <1>        0.100
     15 C4         -2.4540   -1.8310   28.5820 C.ar       1 <1>        0.200
     16 C5         -3.2570   -2.6510   29.3890 C.ar       1 <1>        0.030
     17 C6         -4.1430   -2.0050   30.2500 C.ar       1 <1>        0.010
     18 C7         -4.2080   -0.6340   30.2880 C.ar       1 <1>       -0.050
     19 H2         -3.5130    1.2940   29.5690 H          1 <1>        0.000
     20 H3         -1.8988    0.1702   27.9978 H          1 <1>        0.000
     21 H4         -1.7518   -2.2921   27.8969 H          1 <1>        0.000
     22 C1         -3.1710   -4.1730   29.3330 C.3        1 <1>        0.060
     23 O3         -4.4880   -4.7260   29.3760 O.3        1 <1>        1.300
     24 H4         -2.5914   -4.5387   30.1934 H          1 <1>        0.000
     25 H5         -2.6749   -4.4781   28.3998 H          1 <1>        0.000
     26 H6         -4.4440   -5.6744   29.3420 H          1 <1>        0.000
@<TRIPOS>BOND
     1    2    1 2  
     2    1    3 am 
     3    4    3 1  
     4    3    5 1  
     5    6    7 1  
     6    6    8 1  
     7    7    9 1  
     8    1    6 1  
     9   11   10 1  
    10   10   17 1  
    11   12   11 2  
    12   18   12 1  
    13   13   14 ar 
    14   13   18 ar 
    15   14   15 ar 
    16   15   16 ar 
    17   16   17 ar 
    18   17   18 ar 
    19   13   19 1  
    20   14   20 1  
    21   15   21 1  
    22    6   11 1  
    23   22   23 1  
    24   22   24 1  
    25   22   25 1  
    26   23   26 1  
    27   16   22 1  
# Name:          No_5_7
# Creation time: Wed Mar 20 12:10:21 2024


@<TRIPOS>MOLECULE
000001_000002
   26    27     1     1     1
SMALL
USER_CHARGES


@<TRIPOS>ATOM
      1 C30        -7.8780   -2.2990   32.2090 C.2        1 <1>        0.060
      2 O32        -7.9100   -2.7650   31.0800 O.2        1 <1>        0.520
      3 N4         -8.9360   -2.3980   33.0750 N.am       1 <1>        0.540
      4 H          -9.7771   -2.8601   32.7940 H          1 <1>        0.000
      5 H          -8.8660   -2.0071   33.9928 H          1 <1>        0.000
      6 C1         -6.6870   -1.5580   32.7430 C.3        1 <1>        0.010
      7 O3         -7.0720   -0.2280   33.0970 O.3        1 <1>        0.500
      8 H4         -6.3011   -2.0769   33.6328 H          1 <1>        0.000
      9 H6         -7.7490   -0.2520   33.7630 H          1 <1>        0.000
     10 O1         -5.0340   -2.6150   31.1390 O.3        1 <1>        0.410
     11 C1         -5.6170   -1.5060   31.6910 C.2        1 <1>        0.040
     12 N1         -5.1460   -0.4230   31.2080 N.2        1 <1>        0.050
     13 C2         -3.4300    0.2150   29.5070 C.ar       1 <1>        0.210
     14 C3         -2.5370   -0.4280   28.6380 C.ar       1 <1>        0.100
     15 C4         -2.4540   -1.8310   28.5820 C.ar       1 <1>        0.200
     16 C5         -3.2570   -2.6510   29.3890 C.ar       1 <1>        0.030
     17 C6         -4.1430   -2.0050   30.2500 C.ar       1 <1>        0.010
     18 C7         -4.2080   -0.6340   30.2880 C.ar       1 <1>       -0.050
     19 H2         -3.5130    1.2940   29.5690 H          1 <1>        0.000
     20 H3         -1.8988    0.1702   27.9978 H          1 <1>        0.000
     21 H4         -1.7518   -2.2921   27.8969 H          1 <1>        0.000
     22 C1         -3.1710   -4.1730   29.3330 C.3        1 <1>        0.060
     23 O3         -4.4880   -4.7260   29.3760 O.3        1 <1>        1.300
     24 H4         -2.5914   -4.5387   30.1934 H          1 <1>        0.000
     25 H5         -2.6749   -4.4781   28.3998 H          1 <1>        0.000
     26 H6         -4.4440   -5.6744   29.3420 H          1 <1>        0.000
@<TRIPOS>BOND
     1    2    1 2  
     2    1    3 am 
     3    4    3 1  
     4    3    5 1  
     5    6    7 1  
     6    6    8 1  
     7    7    9 1  
     8    1    6 1  
     9   11   10 1  
    10   10   17 1  
    11   12   11 2  
    12   18   12 1  
    13   13   14 ar 
    14   13   18 ar 
    15   14   15 ar 
    16   15   16 ar 
    17   16   17 ar 
    18   17   18 ar 
    19   13   19 1  
    20   14   20 1  
    21   15   21 1  
    22    6   11 1  
    23   22   23 1  
    24   22   24 1  
    25   22   25 1  
    26   23   26 1  
    27   16   22 1  
# Name:          No_6_2
# Creation time: Wed Mar 20 12:10:21 2024


@<TRIPOS>MOLECULE
000001_000003
   26    27     1     1     1
SMALL
USER_CHARGES


@<TRIPOS>ATOM
      1 C30        -7.8780   -2.2990   32.2090 C.2        1 <1>        0.060
      2 O32        -7.9100   -2.7650   31.0800 O.2        1 <1>        0.520
      3 N4         -8.9360   -2.3980   33.0750 N.am       1 <1>        0.540
      4 H          -9.7771   -2.8601   32.7940 H          1 <1>        0.000
      5 H          -8.8660   -2.0071   33.9928 H          1 <1>        0.000
      6 C1         -6.6870   -1.5580   32.7430 C.3        1 <1>        0.010
      7 O3         -7.0720   -0.2280   33.0970 O.3        1 <1>        0.500
      8 H4         -6.3011   -2.0769   33.6328 H          1 <1>        0.000
      9 H6         -7.7490   -0.2520   33.7630 H          1 <1>        0.000
     10 O1         -5.0340   -2.6150   31.1390 O.3        1 <1>        0.410
     11 C1         -5.6170   -1.5060   31.6910 C.2        1 <1>        0.040
     12 N1         -5.1460   -0.4230   31.2080 N.2        1 <1>        0.050
     13 C2         -3.4300    0.2150   29.5070 C.ar       1 <1>        0.210
     14 C3         -2.5370   -0.4280   28.6380 C.ar       1 <1>        0.100
     15 C4         -2.4540   -1.8310   28.5820 C.ar       1 <1>        0.200
     16 C5         -3.2570   -2.6510   29.3890 C.ar       1 <1>        0.030
     17 C6         -4.1430   -2.0050   30.2500 C.ar       1 <1>        0.010
     18 C7         -4.2080   -0.6340   30.2880 C.ar       1 <1>       -0.050
     19 H2         -3.5130    1.2940   29.5690 H          1 <1>        0.000
     20 H3         -1.8988    0.1702   27.9978 H          1 <1>        0.000
     21 H4         -1.7518   -2.2921   27.8969 H          1 <1>        0.000
     22 C1         -3.1710   -4.1730   29.3330 C.3        1 <1>        0.060
     23 O3         -4.4880   -4.7260   29.3760 O.3        1 <1>        1.300
     24 H4         -2.5914   -4.5387   30.1934 H          1 <1>        0.000
     25 H5         -2.6749   -4.4781   28.3998 H          1 <1>        0.000
     26 H6         -4.4440   -5.6744   29.3420 H          1 <1>        0.000
@<TRIPOS>BOND
     1    2    1 2  
     2    1    3 am 
     3    4    3 1  
     4    3    5 1  
     5    6    7 1  
     6    6    8 1  
     7    7    9 1  
     8    1    6 1  
     9   11   10 1  
    10   10   17 1  
    11   12   11 2  
    12   18   12 1  
    13   13   14 ar 
    14   13   18 ar 
    15   14   15 ar 
    16   15   16 ar 
    17   16   17 ar 
    18   17   18 ar 
    19   13   19 1  
    20   14   20 1  
    21   15   21 1  
    22    6   11 1  
    23   22   23 1  
    24   22   24 1  
    25   22   25 1  
    26   23   26 1  
    27   16   22 1  
# Name:          No_7_3
# Creation time: Wed Mar 20 12:10:21 2024


@<TRIPOS>MOLECULE
000001_000004
   26    27     1     1     1
SMALL
USER_CHARGES


@<TRIPOS>ATOM
      1 C30        -7.8780   -2.2990   32.2090 C.2        1 <1>        0.060
      2 O32        -7.9100   -2.7650   31.0800 O.2        1 <1>        0.520
      3 N4         -8.9360   -2.3980   33.0750 N.am       1 <1>        0.540
      4 H          -9.7771   -2.8601   32.7940 H          1 <1>        0.000
      5 H          -8.8660   -2.0071   33.9928 H          1 <1>        0.000
      6 C1         -6.6870   -1.5580   32.7430 C.3        1 <1>        0.010
      7 O3         -7.0720   -0.2280   33.0970 O.3        1 <1>        0.500
      8 H4         -6.3011   -2.0769   33.6328 H          1 <1>        0.000
      9 H6         -7.7490   -0.2520   33.7630 H          1 <1>        0.000
     10 O1         -5.0340   -2.6150   31.1390 O.3        1 <1>        0.410
     11 C1         -5.6170   -1.5060   31.6910 C.2        1 <1>        0.040
     12 N1         -5.1460   -0.4230   31.2080 N.2        1 <1>        0.050
     13 C2         -3.4300    0.2150   29.5070 C.ar       1 <1>        0.210
     14 C3         -2.5370   -0.4280   28.6380 C.ar       1 <1>        0.100
     15 C4         -2.4540   -1.8310   28.5820 C.ar       1 <1>        0.200
     16 C5         -3.2570   -2.6510   29.3890 C.ar       1 <1>        0.030
     17 C6         -4.1430   -2.0050   30.2500 C.ar       1 <1>        0.010
     18 C7         -4.2080   -0.6340   30.2880 C.ar       1 <1>       -0.050
     19 H2         -3.5130    1.2940   29.5690 H          1 <1>        0.000
     20 H3         -1.8988    0.1702   27.9978 H          1 <1>        0.000
     21 H4         -1.7518   -2.2921   27.8969 H          1 <1>        0.000
     22 C1         -3.1710   -4.1730   29.3330 C.3        1 <1>        0.060
     23 O3         -4.4880   -4.7260   29.3760 O.3        1 <1>        1.300
     24 H4         -2.5914   -4.5387   30.1934 H          1 <1>        0.000
     25 H5         -2.6749   -4.4781   28.3998 H          1 <1>        0.000
     26 H6         -4.4440   -5.6744   29.3420 H          1 <1>        0.000
@<TRIPOS>BOND
     1    2    1 2  
     2    1    3 am 
     3    4    3 1  
     4    3    5 1  
     5    6    7 1  
     6    6    8 1  
     7    7    9 1  
     8    1    6 1  
     9   11   10 1  
    10   10   17 1  
    11   12   11 2  
    12   18   12 1  
    13   13   14 ar 
    14   13   18 ar 
    15   14   15 ar 
    16   15   16 ar 
    17   16   17 ar 
    18   17   18 ar 
    19   13   19 1  
    20   14   20 1  
    21   15   21 1  
    22    6   11 1  
    23   22   23 1  
    24   22   24 1  
    25   22   25 1  
    26   23   26 1  
    27   16   22 1  
# Name:          No_7_22
# Creation time: Wed Mar 20 12:10:21 2024


@<TRIPOS>MOLECULE
000002_000001
   32    32     1     1     1
SMALL
USER_CHARGES


@<TRIPOS>ATOM
      1 C30        -7.8780   -2.2990   32.2090 C.2        1 <1>        0.060
      2 O32        -7.9100   -2.7650   31.0800 O.2        1 <1>        0.520
      3 N4         -8.9360   -2.3980   33.0750 N.am       1 <1>        0.500
      4 H          -8.8660   -2.0071   33.9928 H          1 <1>        0.000
      5 C1        -10.1560   -3.0670   32.6670 C.3        1 <1>        0.020
      6 C2        -11.2870   -2.7170   33.6510 C.3        1 <1>        0.010
      7 H1         -9.9940   -4.1550   32.6660 H          1 <1>        0.000
      8 H3        -10.4349   -2.7371   31.6554 H          1 <1>        0.000
      9 H4        -11.0090   -3.0470   34.6629 H          1 <1>        0.000
     10 H6        -11.4490   -1.6290   33.6520 H          1 <1>        0.000
     11 C1        -12.5500   -3.4100   33.2290 C.2        1 <1>        0.050
     12 O1        -13.6240   -2.9120   33.5310 O.2        1 <1>        0.220
     13 O2        -12.4600   -4.5490   32.5360 O.3        1 <1>        0.550
     14 H2        -13.3049   -4.9200   32.3100 H          1 <1>        0.000
     15 C1         -6.6870   -1.5580   32.7430 C.3        1 <1>        0.010
     16 H2         -5.7736   -2.1346   32.5351 H          1 <1>        0.000
     17 H3         -6.7960   -1.4230   33.8292 H          1 <1>        0.000
     18 N1         -5.5830    0.6040   32.1240 N.pl3      1 <1>        0.710
     19 C1         -6.5930   -0.2160   32.0780 C.2        1 <1>        0.040
     20 C2         -7.5410    0.3530   31.3290 C.2        1 <1>        0.060
     21 C3         -6.9850    1.6470   30.9100 C.2        1 <1>        0.080
     22 C4         -5.7680    1.7050   31.4550 C.2        1 <1>        0.070
     23 H1         -4.7172    0.3990   32.6429 H          1 <1>        0.000
     24 H3         -8.5204   -0.0522   31.0789 H          1 <1>        0.000
     25 H5         -5.0620    2.5280   31.3540 H          1 <1>        0.000
     26 O1         -7.0750    3.7190   29.8420 O.2        1 <1>       -0.050
     27 C1         -7.6360    2.6600   30.0670 C.2        1 <1>       -0.000
     28 C1         -8.9930    2.3910   29.4840 C.3        1 <1>       -0.120
     29 H2         -9.4070    3.3231   29.0720 H          1 <1>        0.000
     30 O3         -8.8790    1.4190   28.4410 O.3        1 <1>        0.750
     31 H4         -9.6610    2.0090   30.2700 H          1 <1>        0.000
     32 H6         -8.5223    0.6097   28.7877 H          1 <1>        0.000
@<TRIPOS>BOND
     1    2    1 2  
     2    1    3 am 
     3    3    4 1  
     4    6    5 1  
     5    5    7 1  
     6    5    8 1  
     7    6    9 1  
     8    6   10 1  
     9    3    5 1  
    10   11   12 2  
    11   11   13 1  
    12   13   14 1  
    13    6   11 1  
    14   15   16 1  
    15   15   17 1  
    16    1   15 1  
    17   18   19 1  
    18   18   22 1  
    19   19   20 2  
    20   20   21 1  
    21   21   22 2  
    22   18   23 1  
    23   20   24 1  
    24   22   25 1  
    25   15   19 1  
    26   27   26 2  
    27   21   27 1  
    28   28   29 1  
    29   28   30 1  
    30   28   31 1  
    31   30   32 1  
    32   27   28 1  
# Name:          No_7_152
# Creation time: Wed Mar 20 12:10:21 2024


@<TRIPOS>MOLECULE
000002_000002
   29    29     1     1     1
SMALL
USER_CHARGES


@<TRIPOS>ATOM
      1 C30        -7.8780   -2.2990   32.2090 C.2        1 <1>        0.060
      2 O32        -7.9100   -2.7650   31.0800 O.2        1 <1>        0.520
      3 N4         -8.9360   -2.3980   33.0750 N.am       1 <1>        0.500
      4 H          -8.8660   -2.0071   33.9928 H          1 <1>        0.000
      5 C1        -10.1560   -3.0670   32.6670 C.3        1 <1>        0.020
      6 C2        -11.2870   -2.7170   33.6510 C.3        1 <1>        0.010
      7 H1         -9.9940   -4.1550   32.6660 H          1 <1>        0.000
      8 H3        -10.4349   -2.7371   31.6554 H          1 <1>        0.000
      9 H4        -11.0090   -3.0470   34.6629 H          1 <1>        0.000
     10 H6        -11.4490   -1.6290   33.6520 H          1 <1>        0.000
     11 C1        -12.5500   -3.4100   33.2290 C.2        1 <1>        0.050
     12 O1        -13.6240   -2.9120   33.5310 O.2        1 <1>        0.220
     13 O2        -12.4600   -4.5490   32.5360 O.3        1 <1>        0.550
     14 H2        -13.3049   -4.9200   32.3100 H          1 <1>        0.000
     15 C1         -6.6870   -1.5580   32.7430 C.3        1 <1>        0.010
     16 H2         -5.7736   -2.1346   32.5351 H          1 <1>        0.000
     17 H3         -6.7960   -1.4230   33.8292 H          1 <1>        0.000
     18 N1         -5.5830    0.6040   32.1240 N.pl3      1 <1>        0.710
     19 C1         -6.5930   -0.2160   32.0780 C.2        1 <1>        0.040
     20 C2         -7.5410    0.3530   31.3290 C.2        1 <1>        0.060
     21 C3         -6.9850    1.6470   30.9100 C.2        1 <1>        0.080
     22 C4         -5.7680    1.7050   31.4550 C.2        1 <1>        0.070
     23 H1         -4.7172    0.3990   32.6429 H          1 <1>        0.000
     24 H3         -8.5204   -0.0522   31.0789 H          1 <1>        0.000
     25 H5         -5.0620    2.5280   31.3540 H          1 <1>        0.000
     26 O1         -7.0750    3.7190   29.8420 O.2        1 <1>       -0.050
     27 C1         -7.6360    2.6600   30.0670 C.2        1 <1>        0.040
     28 O1         -8.8380    2.4210   29.5500 O.3        1 <1>        0.510
     29 H2         -9.0440    3.2052   29.0549 H          1 <1>        0.000
@<TRIPOS>BOND
     1    2    1 2  
     2    1    3 am 
     3    3    4 1  
     4    6    5 1  
     5    5    7 1  
     6    5    8 1  
     7    6    9 1  
     8    6   10 1  
     9    3    5 1  
    10   11   12 2  
    11   11   13 1  
    12   13   14 1  
    13    6   11 1  
    14   15   16 1  
    15   15   17 1  
    16    1   15 1  
    17   18   19 1  
    18   18   22 1  
    19   19   20 2  
    20   20   21 1  
    21   21   22 2  
    22   18   23 1  
    23   20   24 1  
    24   22   25 1  
    25   15   19 1  
    26   27   26 2  
    27   21   27 1  
    28   28   29 1  
    29   27   28 1  
# Name:          No_7_153
# Creation time: Wed Mar 20 12:10:21 2024


@<TRIPOS>MOLECULE
000002_000003
   29    29     1     1     1
SMALL
USER_CHARGES


@<TRIPOS>ATOM
      1 C30        -7.8780   -2.2990   32.2090 C.2        1 <1>        0.060
      2 O32        -7.9100   -2.7650   31.0800 O.2        1 <1>        0.520
      3 N4         -8.9360   -2.3980   33.0750 N.am       1 <1>        0.500
      4 H          -8.8660   -2.0071   33.9928 H          1 <1>        0.000
      5 C1        -10.1560   -3.0670   32.6670 C.3        1 <1>        0.020
      6 C2        -11.2870   -2.7170   33.6510 C.3        1 <1>        0.010
      7 H1         -9.9940   -4.1550   32.6660 H          1 <1>        0.000
      8 H3        -10.4349   -2.7371   31.6554 H          1 <1>        0.000
      9 H4        -11.0090   -3.0470   34.6629 H          1 <1>        0.000
     10 H6        -11.4490   -1.6290   33.6520 H          1 <1>        0.000
     11 C1        -12.5500   -3.4100   33.2290 C.2        1 <1>        0.050
     12 O1        -13.6240   -2.9120   33.5310 O.2        1 <1>        0.220
     13 O2        -12.4600   -4.5490   32.5360 O.3        1 <1>        0.550
     14 H2        -13.3049   -4.9200   32.3100 H          1 <1>        0.000
     15 C1         -6.6870   -1.5580   32.7430 C.3        1 <1>        0.010
     16 H2         -5.7736   -2.1346   32.5351 H          1 <1>        0.000
     17 H3         -6.7960   -1.4230   33.8292 H          1 <1>        0.000
     18 N1         -5.5830    0.6040   32.1240 N.pl3      1 <1>        0.710
     19 C1         -6.5930   -0.2160   32.0780 C.2        1 <1>        0.040
     20 C2         -7.5410    0.3530   31.3290 C.2        1 <1>        0.060
     21 C3         -6.9850    1.6470   30.9100 C.2        1 <1>        0.080
     22 C4         -5.7680    1.7050   31.4550 C.2        1 <1>        0.070
     23 H1         -4.7172    0.3990   32.6429 H          1 <1>        0.000
     24 H3         -8.5204   -0.0522   31.0789 H          1 <1>        0.000
     25 H5         -5.0620    2.5280   31.3540 H          1 <1>        0.000
     26 O1         -7.0750    3.7190   29.8420 O.2        1 <1>       -0.050
     27 C1         -7.6360    2.6600   30.0670 C.2        1 <1>        0.040
     28 O1         -8.8380    2.4210   29.5500 O.3        1 <1>        0.510
     29 H2         -9.0419    1.5335   29.8208 H          1 <1>        0.000
@<TRIPOS>BOND
     1    2    1 2  
     2    1    3 am 
     3    3    4 1  
     4    6    5 1  
     5    5    7 1  
     6    5    8 1  
     7    6    9 1  
     8    6   10 1  
     9    3    5 1  
    10   11   12 2  
    11   11   13 1  
    12   13   14 1  
    13    6   11 1  
    14   15   16 1  
    15   15   17 1  
    16    1   15 1  
    17   18   19 1  
    18   18   22 1  
    19   19   20 2  
    20   20   21 1  
    21   21   22 2  
    22   18   23 1  
    23   20   24 1  
    24   22   25 1  
    25   15   19 1  
    26   27   26 2  
    27   21   27 1  
    28   28   29 1  
    29   27   28 1  
# Name:          No_7_26
# Creation time: Wed Mar 20 12:10:21 2024


@<TRIPOS>MOLECULE
000002_000004
   32    32     1     1     1
SMALL
USER_CHARGES


@<TRIPOS>ATOM
      1 C30        -7.8780   -2.2990   32.2090 C.2        1 <1>        0.060
      2 O32        -7.9100   -2.7650   31.0800 O.2        1 <1>        0.520
      3 N4         -8.9360   -2.3980   33.0750 N.am       1 <1>        0.500
      4 H          -8.8660   -2.0071   33.9928 H          1 <1>        0.000
      5 C1        -10.1560   -3.0670   32.6670 C.3        1 <1>        0.020
      6 C2        -11.2870   -2.7170   33.6510 C.3        1 <1>        0.010
      7 H1         -9.9940   -4.1550   32.6660 H          1 <1>        0.000
      8 H3        -10.4349   -2.7371   31.6554 H          1 <1>        0.000
      9 H4        -11.0090   -3.0470   34.6629 H          1 <1>        0.000
     10 H6        -11.4490   -1.6290   33.6520 H          1 <1>        0.000
     11 C1        -12.5500   -3.4100   33.2290 C.2        1 <1>        0.050
     12 O1        -13.6240   -2.9120   33.5310 O.2        1 <1>        0.220
     13 O2        -12.4600   -4.5490   32.5360 O.3        1 <1>        0.550
     14 H2        -13.3049   -4.9200   32.3100 H          1 <1>        0.000
     15 C1         -6.6870   -1.5580   32.7430 C.3        1 <1>        0.010
     16 H2         -5.7736   -2.1346   32.5351 H          1 <1>        0.000
     17 H3         -6.7960   -1.4230   33.8292 H          1 <1>        0.000
     18 N1         -5.5830    0.6040   32.1240 N.pl3      1 <1>        0.710
     19 C1         -6.5930   -0.2160   32.0780 C.2        1 <1>        0.040
     20 C2         -7.5410    0.3530   31.3290 C.2        1 <1>        0.060
     21 C3         -6.9850    1.6470   30.9100 C.2        1 <1>        0.080
     22 C4         -5.7680    1.7050   31.4550 C.2        1 <1>        0.070
     23 H1         -4.7172    0.3990   32.6429 H          1 <1>        0.000
     24 H3         -8.5204   -0.0522   31.0789 H          1 <1>        0.000
     25 H5         -5.0620    2.5280   31.3540 H          1 <1>        0.000
     26 O1         -7.0750    3.7190   29.8420 O.2        1 <1>       -0.050
     27 C1         -7.6360    2.6600   30.0670 C.2        1 <1>       -0.000
     28 C1         -8.9930    2.3910   29.4840 C.3        1 <1>       -0.120
     29 H2         -9.1109    1.3106   29.3141 H          1 <1>        0.000
     30 O3        -10.0010    2.8430   30.3910 O.3        1 <1>        0.560
     31 H4         -9.0940    2.9252   28.5277 H          1 <1>        0.000
     32 H6         -9.9060    3.7758   30.5440 H          1 <1>        0.000
@<TRIPOS>BOND
     1    2    1 2  
     2    1    3 am 
     3    3    4 1  
     4    6    5 1  
     5    5    7 1  
     6    5    8 1  
     7    6    9 1  
     8    6   10 1  
     9    3    5 1  
    10   11   12 2  
    11   11   13 1  
    12   13   14 1  
    13    6   11 1  
    14   15   16 1  
    15   15   17 1  
    16    1   15 1  
    17   18   19 1  
    18   18   22 1  
    19   19   20 2  
    20   20   21 1  
    21   21   22 2  
    22   18   23 1  
    23   20   24 1  
    24   22   25 1  
    25   15   19 1  
    26   27   26 2  
    27   21   27 1  
    28   28   29 1  
    29   28   30 1  
    30   28   31 1  
    31   30   32 1  
    32   27   28 1  
# Name:          No_7_25
# Creation time: Wed Mar 20 12:10:21 2024


@<TRIPOS>MOLECULE
000002_000005
   32    32     1     1     1
SMALL
USER_CHARGES


@<TRIPOS>ATOM
      1 C30        -7.8780   -2.2990   32.2090 C.2        1 <1>        0.060
      2 O32        -7.9100   -2.7650   31.0800 O.2        1 <1>        0.520
      3 N4         -8.9360   -2.3980   33.0750 N.am       1 <1>        0.500
      4 H          -8.8660   -2.0071   33.9928 H          1 <1>        0.000
      5 C1        -10.1560   -3.0670   32.6670 C.3        1 <1>        0.020
      6 C2        -11.2870   -2.7170   33.6510 C.3        1 <1>        0.010
      7 H1         -9.9940   -4.1550   32.6660 H          1 <1>        0.000
      8 H3        -10.4349   -2.7371   31.6554 H          1 <1>        0.000
      9 H4        -11.0090   -3.0470   34.6629 H          1 <1>        0.000
     10 H6        -11.4490   -1.6290   33.6520 H          1 <1>        0.000
     11 C1        -12.5500   -3.4100   33.2290 C.2        1 <1>        0.050
     12 O1        -13.6240   -2.9120   33.5310 O.2        1 <1>        0.220
     13 O2        -12.4600   -4.5490   32.5360 O.3        1 <1>        0.550
     14 H2        -13.3049   -4.9200   32.3100 H          1 <1>        0.000
     15 C1         -6.6870   -1.5580   32.7430 C.3        1 <1>        0.010
     16 H2         -5.7736   -2.1346   32.5351 H          1 <1>        0.000
     17 H3         -6.7960   -1.4230   33.8292 H          1 <1>        0.000
     18 N1         -5.5830    0.6040   32.1240 N.pl3      1 <1>        0.710
     19 C1         -6.5930   -0.2160   32.0780 C.2        1 <1>        0.040
     20 C2         -7.5410    0.3530   31.3290 C.2        1 <1>        0.060
     21 C3         -6.9850    1.6470   30.9100 C.2        1 <1>        0.080
     22 C4         -5.7680    1.7050   31.4550 C.2        1 <1>        0.070
     23 H1         -4.7172    0.3990   32.6429 H          1 <1>        0.000
     24 H3         -8.5204   -0.0522   31.0789 H          1 <1>        0.000
     25 H5         -5.0620    2.5280   31.3540 H          1 <1>        0.000
     26 O1         -7.0750    3.7190   29.8420 O.2        1 <1>       -0.050
     27 C1         -7.6360    2.6600   30.0670 C.2        1 <1>       -0.000
     28 C1         -8.9930    2.3910   29.4840 C.3        1 <1>       -0.120
     29 H2         -9.0180    1.3734   29.0671 H          1 <1>        0.000
     30 O3         -9.9840    2.5110   30.5070 O.3        1 <1>        0.530
     31 H4         -9.2000    3.1181   28.6849 H          1 <1>        0.000
     32 H6         -9.9700    3.3880   30.8720 H          1 <1>        0.000
@<TRIPOS>BOND
     1    2    1 2  
     2    1    3 am 
     3    3    4 1  
     4    6    5 1  
     5    5    7 1  
     6    5    8 1  
     7    6    9 1  
     8    6   10 1  
     9    3    5 1  
    10   11   12 2  
    11   11   13 1  
    12   13   14 1  
    13    6   11 1  
    14   15   16 1  
    15   15   17 1  
    16    1   15 1  
    17   18   19 1  
    18   18   22 1  
    19   19   20 2  
    20   20   21 1  
    21   21   22 2  
    22   18   23 1  
    23   20   24 1  
    24   22   25 1  
    25   15   19 1  
    26   27   26 2  
    27   21   27 1  
    28   28   29 1  
    29   28   30 1  
    30   28   31 1  
    31   30   32 1  
    32   27   28 1  
# Name:          No_7_24
# Creation time: Wed Mar 20 12:10:21 2024


@<TRIPOS>MOLECULE
000002_000006
   32    32     1     1     1
SMALL
USER_CHARGES


@<TRIPOS>ATOM
      1 C30        -7.8780   -2.2990   32.2090 C.2        1 <1>        0.060
      2 O32        -7.9100   -2.7650   31.0800 O.2        1 <1>        0.520
      3 N4         -8.9360   -2.3980   33.0750 N.am       1 <1>        0.500
      4 H          -8.8660   -2.0071   33.9928 H          1 <1>        0.000
      5 C1        -10.1560   -3.0670   32.6670 C.3        1 <1>        0.020
      6 C2        -11.2870   -2.7170   33.6510 C.3        1 <1>        0.010
      7 H1         -9.9940   -4.1550   32.6660 H          1 <1>        0.000
      8 H3        -10.4349   -2.7371   31.6554 H          1 <1>        0.000
      9 H4        -11.0090   -3.0470   34.6629 H          1 <1>        0.000
     10 H6        -11.4490   -1.6290   33.6520 H          1 <1>        0.000
     11 C1        -12.5500   -3.4100   33.2290 C.2        1 <1>        0.050
     12 O1        -13.6240   -2.9120   33.5310 O.2        1 <1>        0.220
     13 O2        -12.4600   -4.5490   32.5360 O.3        1 <1>        0.550
     14 H2        -13.3049   -4.9200   32.3100 H          1 <1>        0.000
     15 C1         -6.6870   -1.5580   32.7430 C.3        1 <1>        0.010
     16 H2         -5.7736   -2.1346   32.5351 H          1 <1>        0.000
     17 H3         -6.7960   -1.4230   33.8292 H          1 <1>        0.000
     18 N1         -5.5830    0.6040   32.1240 N.pl3      1 <1>        0.710
     19 C1         -6.5930   -0.2160   32.0780 C.2        1 <1>        0.040
     20 C2         -7.5410    0.3530   31.3290 C.2        1 <1>        0.060
     21 C3         -6.9850    1.6470   30.9100 C.2        1 <1>        0.080
     22 C4         -5.7680    1.7050   31.4550 C.2        1 <1>        0.070
     23 H1         -4.7172    0.3990   32.6429 H          1 <1>        0.000
     24 H3         -8.5204   -0.0522   31.0789 H          1 <1>        0.000
     25 H5         -5.0620    2.5280   31.3540 H          1 <1>        0.000
     26 O1         -7.0750    3.7190   29.8420 O.2        1 <1>       -0.050
     27 C1         -7.6360    2.6600   30.0670 C.2        1 <1>       -0.000
     28 C1         -8.9930    2.3910   29.4840 C.3        1 <1>       -0.120
     29 H2         -8.9450    1.5003   28.8402 H          1 <1>        0.000
     30 O3         -9.9300    2.1650   30.5400 O.3        1 <1>        0.500
     31 H4         -9.3141    3.2572   28.8869 H          1 <1>        0.000
     32 H6         -9.9770    2.9301   31.1011 H          1 <1>        0.000
@<TRIPOS>BOND
     1    2    1 2  
     2    1    3 am 
     3    3    4 1  
     4    6    5 1  
     5    5    7 1  
     6    5    8 1  
     7    6    9 1  
     8    6   10 1  
     9    3    5 1  
    10   11   12 2  
    11   11   13 1  
    12   13   14 1  
    13    6   11 1  
    14   15   16 1  
    15   15   17 1  
    16    1   15 1  
    17   18   19 1  
    18   18   22 1  
    19   19   20 2  
    20   20   21 1  
    21   21   22 2  
    22   18   23 1  
    23   20   24 1  
    24   22   25 1  
    25   15   19 1  
    26   27   26 2  
    27   21   27 1  
    28   28   29 1  
    29   28   30 1  
    30   28   31 1  
    31   30   32 1  
    32   27   28 1  
# Name:          No_7_23
# Creation time: Wed Mar 20 12:10:21 2024


@<TRIPOS>MOLECULE
000002_000007
   32    32     1     1     1
SMALL
USER_CHARGES


@<TRIPOS>ATOM
      1 C30        -7.8780   -2.2990   32.2090 C.2        1 <1>        0.060
      2 O32        -7.9100   -2.7650   31.0800 O.2        1 <1>        0.520
      3 N4         -8.9360   -2.3980   33.0750 N.am       1 <1>        0.500
      4 H          -8.8660   -2.0071   33.9928 H          1 <1>        0.000
      5 C1        -10.1560   -3.0670   32.6670 C.3        1 <1>        0.020
      6 C2        -11.2870   -2.7170   33.6510 C.3        1 <1>        0.010
      7 H1         -9.9940   -4.1550   32.6660 H          1 <1>        0.000
      8 H3        -10.4349   -2.7371   31.6554 H          1 <1>        0.000
      9 H4        -11.0090   -3.0470   34.6629 H          1 <1>        0.000
     10 H6        -11.4490   -1.6290   33.6520 H          1 <1>        0.000
     11 C1        -12.5500   -3.4100   33.2290 C.2        1 <1>        0.050
     12 O1        -13.6240   -2.9120   33.5310 O.2        1 <1>        0.220
     13 O2        -12.4600   -4.5490   32.5360 O.3        1 <1>        0.550
     14 H2        -13.3049   -4.9200   32.3100 H          1 <1>        0.000
     15 C1         -6.6870   -1.5580   32.7430 C.3        1 <1>        0.010
     16 H2         -5.7736   -2.1346   32.5351 H          1 <1>        0.000
     17 H3         -6.7960   -1.4230   33.8292 H          1 <1>        0.000
     18 N1         -5.5830    0.6040   32.1240 N.pl3      1 <1>        0.710
     19 C1         -6.5930   -0.2160   32.0780 C.2        1 <1>        0.040
     20 C2         -7.5410    0.3530   31.3290 C.2        1 <1>        0.060
     21 C3         -6.9850    1.6470   30.9100 C.2        1 <1>        0.080
     22 C4         -5.7680    1.7050   31.4550 C.2        1 <1>        0.070
     23 H1         -4.7172    0.3990   32.6429 H          1 <1>        0.000
     24 H3         -8.5204   -0.0522   31.0789 H          1 <1>        0.000
     25 H5         -5.0620    2.5280   31.3540 H          1 <1>        0.000
     26 O1         -7.0750    3.7190   29.8420 O.2        1 <1>       -0.050
     27 C1         -7.6360    2.6600   30.0670 C.2        1 <1>       -0.000
     28 C1         -8.9930    2.3910   29.4840 C.3        1 <1>       -0.120
     29 H2         -8.8920    1.7263   28.6134 H          1 <1>        0.000
     30 O3         -9.8200    1.7640   30.4680 O.3        1 <1>        0.490
     31 H4         -9.4519    3.3398   29.1691 H          1 <1>        0.000
     32 H6         -9.9120    2.3320   31.2239 H          1 <1>        0.000
@<TRIPOS>BOND
     1    2    1 2  
     2    1    3 am 
     3    3    4 1  
     4    6    5 1  
     5    5    7 1  
     6    5    8 1  
     7    6    9 1  
     8    6   10 1  
     9    3    5 1  
    10   11   12 2  
    11   11   13 1  
    12   13   14 1  
    13    6   11 1  
    14   15   16 1  
    15   15   17 1  
    16    1   15 1  
    17   18   19 1  
    18   18   22 1  
    19   19   20 2  
    20   20   21 1  
    21   21   22 2  
    22   18   23 1  
    23   20   24 1  
    24   22   25 1  
    25   15   19 1  
    26   27   26 2  
    27   21   27 1  
    28   28   29 1  
    29   28   30 1  
    30   28   31 1  
    31   30   32 1  
    32   27   28 1  
    
# Name:          No_7_99
# Creation time: Wed Mar 20 12:16:55 2024


@<TRIPOS>MOLECULE
000001_000001
   34    34     1     1     1
SMALL
USER_CHARGES


@<TRIPOS>ATOM
      1 C30        -7.8780   -2.2990   32.2090 C.2        1 <1>        0.060
      2 O32        -7.9100   -2.7650   31.0800 O.2        1 <1>        0.520
      3 N4         -8.9360   -2.3980   33.0750 N.am       1 <1>        0.500
      4 H          -8.8660   -2.0071   33.9928 H          1 <1>        0.000
      5 C1         -6.7920   -0.0990   32.3690 C.2        1 <1>        0.050
      6 O2         -6.8290    0.7530   33.2410 O.2        1 <1>        0.000
      7 O3         -6.8430    0.2510   31.1080 O.3        1 <1>        0.510
      8 C4         -6.6870   -1.5580   32.7430 C.3        1 <1>        0.050
      9 H5         -6.9070    1.1960   31.0350 H          1 <1>        0.000
     10 H6         -6.6560   -1.6550   33.8383 H          1 <1>        0.000
     11 N1         -5.0940   -1.8690   30.8640 N.ar       1 <1>        0.510
     12 C1         -3.9770   -2.3640   30.2920 C.ar       1 <1>        0.070
     13 C2         -3.1150   -3.1890   31.0210 C.ar       1 <1>        0.050
     14 C3         -3.4230   -3.4910   32.3500 C.ar       1 <1>        0.070
     15 C4         -4.5840   -2.9640   32.9190 C.ar       1 <1>        0.100
     16 C5         -5.4130   -2.1460   32.1450 C.ar       1 <1>        0.050
     17 H1         -3.7531   -2.1181   29.2603 H          1 <1>        0.000
     18 H3         -2.7669   -4.1281   32.9321 H          1 <1>        0.000
     19 N1         -0.6730   -2.9420   30.7520 N.4        1 <1>        1.160
     20 C1         -1.8530   -3.7510   30.3730 C.3        1 <1>        0.030
     21 H2         -0.7741   -1.9835   30.4568 H          1 <1>        0.000
     22 H3         -0.5360   -2.9390   31.7507 H          1 <1>        0.000
     23 H5         -1.7270   -4.7928   30.7029 H          1 <1>        0.000
     24 H6         -1.9891   -3.7440   29.2815 H          1 <1>        0.000
     25 H1          0.1695   -3.3022   30.3318 H          1 <1>        0.000
     26 O1         -4.9130   -3.2490   34.2400 O.3        1 <1>        0.540
     27 H1         -4.0983   -3.1380   34.7158 H          1 <1>        0.000
     28 C1        -10.2320   -4.4510   33.3400 C.3        1 <1>        0.230
     29 C2        -10.1560   -3.0670   32.6670 C.3        1 <1>        0.060
     30 H1         -9.3638   -5.0541   33.0359 H          1 <1>        0.000
     31 H2        -11.1578   -4.9579   33.0301 H          1 <1>        0.000
     32 H3        -10.2290   -4.3270   34.4330 H          1 <1>        0.000
     33 H4        -10.1590   -3.1900   31.5739 H          1 <1>        0.000
     34 H6        -11.0244   -2.4637   32.9701 H          1 <1>        0.000
@<TRIPOS>BOND
     1    2    1 2  
     2    1    3 am 
     3    3    4 1  
     4    5    6 2  
     5    5    7 1  
     6    5    8 1  
     7    7    9 1  
     8    8   10 1  
     9    1    8 1  
    10   11   12 ar 
    11   11   16 ar 
    12   12   13 ar 
    13   13   14 ar 
    14   14   15 ar 
    15   15   16 ar 
    16   12   17 1  
    17   14   18 1  
    18    8   16 1  
    19   19   20 1  
    20   19   21 1  
    21   19   22 1  
    22   20   23 1  
    23   20   24 1  
    24   19   25 1  
    25   13   20 1  
    26   26   27 1  
    27   15   26 1  
    28   29   28 1  
    29   28   30 1  
    30   28   31 1  
    31   28   32 1  
    32   29   33 1  
    33   29   34 1  
    34    3   29 1  
# Name:          No_7_101
# Creation time: Wed Mar 20 12:16:55 2024


@<TRIPOS>MOLECULE
000001_000002
   34    34     1     1     1
SMALL
USER_CHARGES


@<TRIPOS>ATOM
      1 C30        -7.8780   -2.2990   32.2090 C.2        1 <1>        0.060
      2 O32        -7.9100   -2.7650   31.0800 O.2        1 <1>        0.520
      3 N4         -8.9360   -2.3980   33.0750 N.am       1 <1>        0.500
      4 H          -8.8660   -2.0071   33.9928 H          1 <1>        0.000
      5 C1         -6.7920   -0.0990   32.3690 C.2        1 <1>        0.050
      6 O2         -6.8290    0.7530   33.2410 O.2        1 <1>        0.000
      7 O3         -6.8430    0.2510   31.1080 O.3        1 <1>        0.510
      8 C4         -6.6870   -1.5580   32.7430 C.3        1 <1>        0.050
      9 H5         -6.9070    1.1960   31.0350 H          1 <1>        0.000
     10 H6         -6.6560   -1.6550   33.8383 H          1 <1>        0.000
     11 N1         -5.0940   -1.8690   30.8640 N.ar       1 <1>        0.510
     12 C1         -3.9770   -2.3640   30.2920 C.ar       1 <1>        0.070
     13 C2         -3.1150   -3.1890   31.0210 C.ar       1 <1>        0.050
     14 C3         -3.4230   -3.4910   32.3500 C.ar       1 <1>        0.070
     15 C4         -4.5840   -2.9640   32.9190 C.ar       1 <1>        0.100
     16 C5         -5.4130   -2.1460   32.1450 C.ar       1 <1>        0.050
     17 H1         -3.7531   -2.1181   29.2603 H          1 <1>        0.000
     18 H3         -2.7669   -4.1281   32.9321 H          1 <1>        0.000
     19 N1         -0.6730   -2.9420   30.7520 N.4        1 <1>        1.160
     20 C1         -1.8530   -3.7510   30.3730 C.3        1 <1>        0.030
     21 H2         -0.7741   -1.9835   30.4568 H          1 <1>        0.000
     22 H3         -0.5360   -2.9390   31.7507 H          1 <1>        0.000
     23 H5         -1.7270   -4.7928   30.7029 H          1 <1>        0.000
     24 H6         -1.9891   -3.7440   29.2815 H          1 <1>        0.000
     25 H1          0.1695   -3.3022   30.3318 H          1 <1>        0.000
     26 O1         -4.9130   -3.2490   34.2400 O.3        1 <1>        0.540
     27 H1         -4.0983   -3.1380   34.7158 H          1 <1>        0.000
     28 C1        -10.9810   -3.4360   33.9140 C.3        1 <1>        0.280
     29 C2        -10.1560   -3.0670   32.6670 C.3        1 <1>        0.060
     30 H1        -10.3921   -4.1058   34.5578 H          1 <1>        0.000
     31 H2        -11.9063   -3.9442   33.6049 H          1 <1>        0.000
     32 H3        -11.2329   -2.5214   34.4708 H          1 <1>        0.000
     33 H4         -9.9040   -3.9821   32.1110 H          1 <1>        0.000
     34 H6        -10.7442   -2.3968   32.0228 H          1 <1>        0.000
@<TRIPOS>BOND
     1    2    1 2  
     2    1    3 am 
     3    3    4 1  
     4    5    6 2  
     5    5    7 1  
     6    5    8 1  
     7    7    9 1  
     8    8   10 1  
     9    1    8 1  
    10   11   12 ar 
    11   11   16 ar 
    12   12   13 ar 
    13   13   14 ar 
    14   14   15 ar 
    15   15   16 ar 
    16   12   17 1  
    17   14   18 1  
    18    8   16 1  
    19   19   20 1  
    20   19   21 1  
    21   19   22 1  
    22   20   23 1  
    23   20   24 1  
    24   19   25 1  
    25   13   20 1  
    26   26   27 1  
    27   15   26 1  
    28   29   28 1  
    29   28   30 1  
    30   28   31 1  
    31   28   32 1  
    32   29   33 1  
    33   29   34 1  
    34    3   29 1  
# Name:          No_7_100
# Creation time: Wed Mar 20 12:16:55 2024


@<TRIPOS>MOLECULE
000001_000003
   34    34     1     1     1
SMALL
USER_CHARGES


@<TRIPOS>ATOM
      1 C30        -7.8780   -2.2990   32.2090 C.2        1 <1>        0.060
      2 O32        -7.9100   -2.7650   31.0800 O.2        1 <1>        0.520
      3 N4         -8.9360   -2.3980   33.0750 N.am       1 <1>        0.500
      4 H          -8.8660   -2.0071   33.9928 H          1 <1>        0.000
      5 C1         -6.7920   -0.0990   32.3690 C.2        1 <1>        0.050
      6 O2         -6.8290    0.7530   33.2410 O.2        1 <1>        0.000
      7 O3         -6.8430    0.2510   31.1080 O.3        1 <1>        0.510
      8 C4         -6.6870   -1.5580   32.7430 C.3        1 <1>        0.050
      9 H5         -6.9070    1.1960   31.0350 H          1 <1>        0.000
     10 H6         -6.6560   -1.6550   33.8383 H          1 <1>        0.000
     11 N1         -5.0940   -1.8690   30.8640 N.ar       1 <1>        0.510
     12 C1         -3.9770   -2.3640   30.2920 C.ar       1 <1>        0.070
     13 C2         -3.1150   -3.1890   31.0210 C.ar       1 <1>        0.050
     14 C3         -3.4230   -3.4910   32.3500 C.ar       1 <1>        0.070
     15 C4         -4.5840   -2.9640   32.9190 C.ar       1 <1>        0.100
     16 C5         -5.4130   -2.1460   32.1450 C.ar       1 <1>        0.050
     17 H1         -3.7531   -2.1181   29.2603 H          1 <1>        0.000
     18 H3         -2.7669   -4.1281   32.9321 H          1 <1>        0.000
     19 N1         -0.6730   -2.9420   30.7520 N.4        1 <1>        1.160
     20 C1         -1.8530   -3.7510   30.3730 C.3        1 <1>        0.030
     21 H2         -0.7741   -1.9835   30.4568 H          1 <1>        0.000
     22 H3         -0.5360   -2.9390   31.7507 H          1 <1>        0.000
     23 H5         -1.7270   -4.7928   30.7029 H          1 <1>        0.000
     24 H6         -1.9891   -3.7440   29.2815 H          1 <1>        0.000
     25 H1          0.1695   -3.3022   30.3318 H          1 <1>        0.000
     26 O1         -4.9130   -3.2490   34.2400 O.3        1 <1>        0.540
     27 H1         -4.0983   -3.1380   34.7158 H          1 <1>        0.000
     28 C1        -10.5890   -4.0590   33.7630 C.3        1 <1>        0.290
     29 C2        -10.1560   -3.0670   32.6670 C.3        1 <1>        0.060
     30 H1         -9.7951   -4.8049   33.9160 H          1 <1>        0.000
     31 H2        -11.5141   -4.5670   33.4530 H          1 <1>        0.000
     32 H3        -10.7660   -3.5140   34.7020 H          1 <1>        0.000
     33 H4         -9.9791   -3.6127   31.7285 H          1 <1>        0.000
     34 H6        -10.9498   -2.3212   32.5130 H          1 <1>        0.000
@<TRIPOS>BOND
     1    2    1 2  
     2    1    3 am 
     3    3    4 1  
     4    5    6 2  
     5    5    7 1  
     6    5    8 1  
     7    7    9 1  
     8    8   10 1  
     9    1    8 1  
    10   11   12 ar 
    11   11   16 ar 
    12   12   13 ar 
    13   13   14 ar 
    14   14   15 ar 
    15   15   16 ar 
    16   12   17 1  
    17   14   18 1  
    18    8   16 1  
    19   19   20 1  
    20   19   21 1  
    21   19   22 1  
    22   20   23 1  
    23   20   24 1  
    24   19   25 1  
    25   13   20 1  
    26   26   27 1  
    27   15   26 1  
    28   29   28 1  
    29   28   30 1  
    30   28   31 1  
    31   28   32 1  
    32   29   33 1  
    33   29   34 1  
    34    3   29 1  
# Name:          No_7_102
# Creation time: Wed Mar 20 12:16:55 2024


@<TRIPOS>MOLECULE
000001_000004
   34    34     1     1     1
SMALL
USER_CHARGES


@<TRIPOS>ATOM
      1 C30        -7.8780   -2.2990   32.2090 C.2        1 <1>        0.060
      2 O32        -7.9100   -2.7650   31.0800 O.2        1 <1>        0.520
      3 N4         -8.9360   -2.3980   33.0750 N.am       1 <1>        0.500
      4 H          -8.8660   -2.0071   33.9928 H          1 <1>        0.000
      5 C1         -6.7920   -0.0990   32.3690 C.2        1 <1>        0.050
      6 O2         -6.8290    0.7530   33.2410 O.2        1 <1>        0.000
      7 O3         -6.8430    0.2510   31.1080 O.3        1 <1>        0.510
      8 C4         -6.6870   -1.5580   32.7430 C.3        1 <1>        0.050
      9 H5         -6.9070    1.1960   31.0350 H          1 <1>        0.000
     10 H6         -6.6560   -1.6550   33.8383 H          1 <1>        0.000
     11 N1         -5.0940   -1.8690   30.8640 N.ar       1 <1>        0.510
     12 C1         -3.9770   -2.3640   30.2920 C.ar       1 <1>        0.070
     13 C2         -3.1150   -3.1890   31.0210 C.ar       1 <1>        0.050
     14 C3         -3.4230   -3.4910   32.3500 C.ar       1 <1>        0.070
     15 C4         -4.5840   -2.9640   32.9190 C.ar       1 <1>        0.100
     16 C5         -5.4130   -2.1460   32.1450 C.ar       1 <1>        0.050
     17 H1         -3.7531   -2.1181   29.2603 H          1 <1>        0.000
     18 H3         -2.7669   -4.1281   32.9321 H          1 <1>        0.000
     19 N1         -0.6730   -2.9420   30.7520 N.4        1 <1>        1.160
     20 C1         -1.8530   -3.7510   30.3730 C.3        1 <1>        0.030
     21 H2         -0.7741   -1.9835   30.4568 H          1 <1>        0.000
     22 H3         -0.5360   -2.9390   31.7507 H          1 <1>        0.000
     23 H5         -1.7270   -4.7928   30.7029 H          1 <1>        0.000
     24 H6         -1.9891   -3.7440   29.2815 H          1 <1>        0.000
     25 H1          0.1695   -3.3022   30.3318 H          1 <1>        0.000
     26 O1         -4.9130   -3.2490   34.2400 O.3        1 <1>        0.540
     27 H1         -4.0983   -3.1380   34.7158 H          1 <1>        0.000
     28 C1        -11.2870   -2.7170   33.6510 C.3        1 <1>        0.270
     29 C2        -10.1560   -3.0670   32.6670 C.3        1 <1>        0.060
     30 H1        -11.0090   -3.0470   34.6629 H          1 <1>        0.000
     31 H2        -12.2126   -3.2248   33.3421 H          1 <1>        0.000
     32 H3        -11.4490   -1.6290   33.6520 H          1 <1>        0.000
     33 H4         -9.9940   -4.1550   32.6660 H          1 <1>        0.000
     34 H6        -10.4349   -2.7371   31.6554 H          1 <1>        0.000
@<TRIPOS>BOND
     1    2    1 2  
     2    1    3 am 
     3    3    4 1  
     4    5    6 2  
     5    5    7 1  
     6    5    8 1  
     7    7    9 1  
     8    8   10 1  
     9    1    8 1  
    10   11   12 ar 
    11   11   16 ar 
    12   12   13 ar 
    13   13   14 ar 
    14   14   15 ar 
    15   15   16 ar 
    16   12   17 1  
    17   14   18 1  
    18    8   16 1  
    19   19   20 1  
    20   19   21 1  
    21   19   22 1  
    22   20   23 1  
    23   20   24 1  
    24   19   25 1  
    25   13   20 1  
    26   26   27 1  
    27   15   26 1  
    28   29   28 1  
    29   28   30 1  
    30   28   31 1  
    31   28   32 1  
    32   29   33 1  
    33   29   34 1  
    34    3   29 1  
# Name:          No_6_1
# Creation time: Wed Mar 20 12:16:55 2024


@<TRIPOS>MOLECULE
000001_000005
   27    27     1     1     1
SMALL
USER_CHARGES


@<TRIPOS>ATOM
      1 C30        -7.8780   -2.2990   32.2090 C.2        1 <1>        0.060
      2 O32        -7.9100   -2.7650   31.0800 O.2        1 <1>        0.520
      3 N4         -8.9360   -2.3980   33.0750 N.am       1 <1>        0.540
      4 H          -9.7771   -2.8601   32.7940 H          1 <1>        0.000
      5 H          -8.8660   -2.0071   33.9928 H          1 <1>        0.000
      6 C1         -6.7920   -0.0990   32.3690 C.2        1 <1>        0.050
      7 O2         -6.8290    0.7530   33.2410 O.2        1 <1>        0.000
      8 O3         -6.8430    0.2510   31.1080 O.3        1 <1>        0.510
      9 C4         -6.6870   -1.5580   32.7430 C.3        1 <1>        0.050
     10 H5         -6.9070    1.1960   31.0350 H          1 <1>        0.000
     11 H6         -6.6560   -1.6550   33.8383 H          1 <1>        0.000
     12 N1         -5.0940   -1.8690   30.8640 N.ar       1 <1>        0.510
     13 C1         -3.9770   -2.3640   30.2920 C.ar       1 <1>        0.070
     14 C2         -3.1150   -3.1890   31.0210 C.ar       1 <1>        0.050
     15 C3         -3.4230   -3.4910   32.3500 C.ar       1 <1>        0.070
     16 C4         -4.5840   -2.9640   32.9190 C.ar       1 <1>        0.100
     17 C5         -5.4130   -2.1460   32.1450 C.ar       1 <1>        0.050
     18 H1         -3.7531   -2.1181   29.2603 H          1 <1>        0.000
     19 H3         -2.7669   -4.1281   32.9321 H          1 <1>        0.000
     20 H4         -4.8399   -3.1859   33.9487 H          1 <1>        0.000
     21 N1         -0.6730   -2.9420   30.7520 N.4        1 <1>        1.160
     22 C1         -1.8530   -3.7510   30.3730 C.3        1 <1>        0.030
     23 H2         -0.7741   -1.9835   30.4568 H          1 <1>        0.000
     24 H3         -0.5360   -2.9390   31.7507 H          1 <1>        0.000
     25 H5         -1.7270   -4.7928   30.7029 H          1 <1>        0.000
     26 H6         -1.9891   -3.7440   29.2815 H          1 <1>        0.000
     27 H1          0.1695   -3.3022   30.3318 H          1 <1>        0.000
@<TRIPOS>BOND
     1    2    1 2  
     2    1    3 am 
     3    4    3 1  
     4    3    5 1  
     5    6    7 2  
     6    6    8 1  
     7    6    9 1  
     8    8   10 1  
     9    9   11 1  
    10    1    9 1  
    11   12   13 ar 
    12   12   17 ar 
    13   13   14 ar 
    14   14   15 ar 
    15   15   16 ar 
    16   16   17 ar 
    17   13   18 1  
    18   15   19 1  
    19   16   20 1  
    20    9   17 1  
    21   21   22 1  
    22   21   23 1  
    23   21   24 1  
    24   22   25 1  
    25   22   26 1  
    26   21   27 1  
    27   14   22 1  
# Name:          No_7_1
# Creation time: Wed Mar 20 12:16:55 2024


@<TRIPOS>MOLECULE
000001_000006
   27    27     1     1     1
SMALL
USER_CHARGES


@<TRIPOS>ATOM
      1 C30        -7.8780   -2.2990   32.2090 C.2        1 <1>        0.060
      2 O32        -7.9100   -2.7650   31.0800 O.2        1 <1>        0.520
      3 N4         -8.9360   -2.3980   33.0750 N.am       1 <1>        0.540
      4 H          -9.7771   -2.8601   32.7940 H          1 <1>        0.000
      5 H          -8.8660   -2.0071   33.9928 H          1 <1>        0.000
      6 C1         -6.7920   -0.0990   32.3690 C.2        1 <1>        0.050
      7 O2         -6.8290    0.7530   33.2410 O.2        1 <1>        0.000
      8 O3         -6.8430    0.2510   31.1080 O.3        1 <1>        0.510
      9 C4         -6.6870   -1.5580   32.7430 C.3        1 <1>        0.050
     10 H5         -6.9070    1.1960   31.0350 H          1 <1>        0.000
     11 H6         -6.6560   -1.6550   33.8383 H          1 <1>        0.000
     12 N1         -5.0940   -1.8690   30.8640 N.ar       1 <1>        0.510
     13 C1         -3.9770   -2.3640   30.2920 C.ar       1 <1>        0.070
     14 C2         -3.1150   -3.1890   31.0210 C.ar       1 <1>        0.050
     15 C3         -3.4230   -3.4910   32.3500 C.ar       1 <1>        0.070
     16 C4         -4.5840   -2.9640   32.9190 C.ar       1 <1>        0.100
     17 C5         -5.4130   -2.1460   32.1450 C.ar       1 <1>        0.050
     18 H1         -3.7531   -2.1181   29.2603 H          1 <1>        0.000
     19 H3         -2.7669   -4.1281   32.9321 H          1 <1>        0.000
     20 H4         -4.8399   -3.1859   33.9487 H          1 <1>        0.000
     21 N1         -0.6730   -2.9420   30.7520 N.4        1 <1>        1.160
     22 C1         -1.8530   -3.7510   30.3730 C.3        1 <1>        0.030
     23 H2         -0.7741   -1.9835   30.4568 H          1 <1>        0.000
     24 H3         -0.5360   -2.9390   31.7507 H          1 <1>        0.000
     25 H5         -1.7270   -4.7928   30.7029 H          1 <1>        0.000
     26 H6         -1.9891   -3.7440   29.2815 H          1 <1>        0.000
     27 H1          0.1695   -3.3022   30.3318 H          1 <1>        0.000
@<TRIPOS>BOND
     1    2    1 2  
     2    1    3 am 
     3    4    3 1  
     4    3    5 1  
     5    6    7 2  
     6    6    8 1  
     7    6    9 1  
     8    8   10 1  
     9    9   11 1  
    10    1    9 1  
    11   12   13 ar 
    12   12   17 ar 
    13   13   14 ar 
    14   14   15 ar 
    15   15   16 ar 
    16   16   17 ar 
    17   13   18 1  
    18   15   19 1  
    19   16   20 1  
    20    9   17 1  
    21   21   22 1  
    22   21   23 1  
    23   21   24 1  
    24   22   25 1  
    25   22   26 1  
    26   21   27 1  
    27   14   22 1  
# Name:          No_5_25
# Creation time: Wed Mar 20 12:16:55 2024


@<TRIPOS>MOLECULE
000001_000007
   27    27     1     1     1
SMALL
USER_CHARGES


@<TRIPOS>ATOM
      1 C30        -7.8780   -2.2990   32.2090 C.2        1 <1>        0.060
      2 O32        -7.9100   -2.7650   31.0800 O.2        1 <1>        0.520
      3 N4         -8.9360   -2.3980   33.0750 N.am       1 <1>        0.540
      4 H          -9.7771   -2.8601   32.7940 H          1 <1>        0.000
      5 H          -8.8660   -2.0071   33.9928 H          1 <1>        0.000
      6 C1         -6.7920   -0.0990   32.3690 C.2        1 <1>        0.050
      7 O2         -6.8290    0.7530   33.2410 O.2        1 <1>        0.000
      8 O3         -6.8430    0.2510   31.1080 O.3        1 <1>        0.510
      9 C4         -6.6870   -1.5580   32.7430 C.3        1 <1>        0.050
     10 H5         -6.9070    1.1960   31.0350 H          1 <1>        0.000
     11 H6         -6.6560   -1.6550   33.8383 H          1 <1>        0.000
     12 N1         -5.0940   -1.8690   30.8640 N.ar       1 <1>        0.510
     13 C1         -3.9770   -2.3640   30.2920 C.ar       1 <1>        0.070
     14 C2         -3.1150   -3.1890   31.0210 C.ar       1 <1>        0.050
     15 C3         -3.4230   -3.4910   32.3500 C.ar       1 <1>        0.070
     16 C4         -4.5840   -2.9640   32.9190 C.ar       1 <1>        0.100
     17 C5         -5.4130   -2.1460   32.1450 C.ar       1 <1>        0.050
     18 H1         -3.7531   -2.1181   29.2603 H          1 <1>        0.000
     19 H3         -2.7669   -4.1281   32.9321 H          1 <1>        0.000
     20 H4         -4.8399   -3.1859   33.9487 H          1 <1>        0.000
     21 N1         -0.6730   -2.9420   30.7520 N.4        1 <1>        1.160
     22 C1         -1.8530   -3.7510   30.3730 C.3        1 <1>        0.030
     23 H2         -0.7741   -1.9835   30.4568 H          1 <1>        0.000
     24 H3         -0.5360   -2.9390   31.7507 H          1 <1>        0.000
     25 H5         -1.7270   -4.7928   30.7029 H          1 <1>        0.000
     26 H6         -1.9891   -3.7440   29.2815 H          1 <1>        0.000
     27 H1          0.1695   -3.3022   30.3318 H          1 <1>        0.000
@<TRIPOS>BOND
     1    2    1 2  
     2    1    3 am 
     3    4    3 1  
     4    3    5 1  
     5    6    7 2  
     6    6    8 1  
     7    6    9 1  
     8    8   10 1  
     9    9   11 1  
    10    1    9 1  
    11   12   13 ar 
    12   12   17 ar 
    13   13   14 ar 
    14   14   15 ar 
    15   15   16 ar 
    16   16   17 ar 
    17   13   18 1  
    18   15   19 1  
    19   16   20 1  
    20    9   17 1  
    21   21   22 1  
    22   21   23 1  
    23   21   24 1  
    24   22   25 1  
    25   22   26 1  
    26   21   27 1  
    27   14   22 1  
# Name:          No_5_26
# Creation time: Wed Mar 20 12:16:55 2024


@<TRIPOS>MOLECULE
000001_000008
   27    27     1     1     1
SMALL
USER_CHARGES


@<TRIPOS>ATOM
      1 C30        -7.8780   -2.2990   32.2090 C.2        1 <1>        0.060
      2 O32        -7.9100   -2.7650   31.0800 O.2        1 <1>        0.520
      3 N4         -8.9360   -2.3980   33.0750 N.am       1 <1>        0.540
      4 H          -9.7771   -2.8601   32.7940 H          1 <1>        0.000
      5 H          -8.8660   -2.0071   33.9928 H          1 <1>        0.000
      6 C1         -6.7920   -0.0990   32.3690 C.2        1 <1>        0.050
      7 O2         -6.8290    0.7530   33.2410 O.2        1 <1>        0.000
      8 O3         -6.8430    0.2510   31.1080 O.3        1 <1>        0.510
      9 C4         -6.6870   -1.5580   32.7430 C.3        1 <1>        0.050
     10 H5         -6.9070    1.1960   31.0350 H          1 <1>        0.000
     11 H6         -6.6560   -1.6550   33.8383 H          1 <1>        0.000
     12 N1         -5.0940   -1.8690   30.8640 N.ar       1 <1>        0.510
     13 C1         -3.9770   -2.3640   30.2920 C.ar       1 <1>        0.070
     14 C2         -3.1150   -3.1890   31.0210 C.ar       1 <1>        0.050
     15 C3         -3.4230   -3.4910   32.3500 C.ar       1 <1>        0.070
     16 C4         -4.5840   -2.9640   32.9190 C.ar       1 <1>        0.100
     17 C5         -5.4130   -2.1460   32.1450 C.ar       1 <1>        0.050
     18 H1         -3.7531   -2.1181   29.2603 H          1 <1>        0.000
     19 H3         -2.7669   -4.1281   32.9321 H          1 <1>        0.000
     20 H4         -4.8399   -3.1859   33.9487 H          1 <1>        0.000
     21 N1         -1.4650   -5.0240   31.0190 N.4        1 <1>        0.960
     22 C1         -1.8530   -3.7510   30.3730 C.3        1 <1>        0.030
     23 H2         -1.2801   -4.8970   32.0017 H          1 <1>        0.000
     24 H3         -2.1930   -5.7160   30.9340 H          1 <1>        0.000
     25 H5         -2.0511   -3.9071   29.3023 H          1 <1>        0.000
     26 H6         -1.0491   -3.0071   30.4750 H          1 <1>        0.000
     27 H1         -0.6317   -5.4077   30.6013 H          1 <1>        0.000
@<TRIPOS>BOND
     1    2    1 2  
     2    1    3 am 
     3    4    3 1  
     4    3    5 1  
     5    6    7 2  
     6    6    8 1  
     7    6    9 1  
     8    8   10 1  
     9    9   11 1  
    10    1    9 1  
    11   12   13 ar 
    12   12   17 ar 
    13   13   14 ar 
    14   14   15 ar 
    15   15   16 ar 
    16   16   17 ar 
    17   13   18 1  
    18   15   19 1  
    19   16   20 1  
    20    9   17 1  
    21   21   22 1  
    22   21   23 1  
    23   21   24 1  
    24   22   25 1  
    25   22   26 1  
    26   21   27 1  
    27   14   22 1  
# Name:          No_7_6
# Creation time: Wed Mar 20 12:16:55 2024


@<TRIPOS>MOLECULE
000001_000009
   27    27     1     1     1
SMALL
USER_CHARGES


@<TRIPOS>ATOM
      1 C30        -7.8780   -2.2990   32.2090 C.2        1 <1>        0.060
      2 O32        -7.9100   -2.7650   31.0800 O.2        1 <1>        0.520
      3 N4         -8.9360   -2.3980   33.0750 N.am       1 <1>        0.540
      4 H          -9.7771   -2.8601   32.7940 H          1 <1>        0.000
      5 H          -8.8660   -2.0071   33.9928 H          1 <1>        0.000
      6 C1         -6.7920   -0.0990   32.3690 C.2        1 <1>        0.050
      7 O2         -6.8290    0.7530   33.2410 O.2        1 <1>        0.000
      8 O3         -6.8430    0.2510   31.1080 O.3        1 <1>        0.510
      9 C4         -6.6870   -1.5580   32.7430 C.3        1 <1>        0.050
     10 H5         -6.9070    1.1960   31.0350 H          1 <1>        0.000
     11 H6         -6.6560   -1.6550   33.8383 H          1 <1>        0.000
     12 N1         -5.0940   -1.8690   30.8640 N.ar       1 <1>        0.510
     13 C1         -3.9770   -2.3640   30.2920 C.ar       1 <1>        0.070
     14 C2         -3.1150   -3.1890   31.0210 C.ar       1 <1>        0.050
     15 C3         -3.4230   -3.4910   32.3500 C.ar       1 <1>        0.070
     16 C4         -4.5840   -2.9640   32.9190 C.ar       1 <1>        0.100
     17 C5         -5.4130   -2.1460   32.1450 C.ar       1 <1>        0.050
     18 H1         -3.7531   -2.1181   29.2603 H          1 <1>        0.000
     19 H3         -2.7669   -4.1281   32.9321 H          1 <1>        0.000
     20 H4         -4.8399   -3.1859   33.9487 H          1 <1>        0.000
     21 N1         -1.4650   -5.0240   31.0190 N.4        1 <1>        0.960
     22 C1         -1.8530   -3.7510   30.3730 C.3        1 <1>        0.030
     23 H2         -1.2801   -4.8970   32.0017 H          1 <1>        0.000
     24 H3         -2.1930   -5.7160   30.9340 H          1 <1>        0.000
     25 H5         -2.0511   -3.9071   29.3023 H          1 <1>        0.000
     26 H6         -1.0491   -3.0071   30.4750 H          1 <1>        0.000
     27 H1         -0.6317   -5.4077   30.6013 H          1 <1>        0.000
@<TRIPOS>BOND
     1    2    1 2  
     2    1    3 am 
     3    4    3 1  
     4    3    5 1  
     5    6    7 2  
     6    6    8 1  
     7    6    9 1  
     8    8   10 1  
     9    9   11 1  
    10    1    9 1  
    11   12   13 ar 
    12   12   17 ar 
    13   13   14 ar 
    14   14   15 ar 
    15   15   16 ar 
    16   16   17 ar 
    17   13   18 1  
    18   15   19 1  
    19   16   20 1  
    20    9   17 1  
    21   21   22 1  
    22   21   23 1  
    23   21   24 1  
    24   22   25 1  
    25   22   26 1  
    26   21   27 1  
    27   14   22 1  
# Name:          No_6_2
# Creation time: Wed Mar 20 12:16:55 2024


@<TRIPOS>MOLECULE
000001_000010
   27    27     1     1     1
SMALL
USER_CHARGES


@<TRIPOS>ATOM
      1 C30        -7.8780   -2.2990   32.2090 C.2        1 <1>        0.060
      2 O32        -7.9100   -2.7650   31.0800 O.2        1 <1>        0.520
      3 N4         -8.9360   -2.3980   33.0750 N.am       1 <1>        0.540
      4 H          -9.7771   -2.8601   32.7940 H          1 <1>        0.000
      5 H          -8.8660   -2.0071   33.9928 H          1 <1>        0.000
      6 C1         -6.7920   -0.0990   32.3690 C.2        1 <1>        0.050
      7 O2         -6.8290    0.7530   33.2410 O.2        1 <1>        0.000
      8 O3         -6.8430    0.2510   31.1080 O.3        1 <1>        0.510
      9 C4         -6.6870   -1.5580   32.7430 C.3        1 <1>        0.050
     10 H5         -6.9070    1.1960   31.0350 H          1 <1>        0.000
     11 H6         -6.6560   -1.6550   33.8383 H          1 <1>        0.000
     12 N1         -5.0940   -1.8690   30.8640 N.ar       1 <1>        0.510
     13 C1         -3.9770   -2.3640   30.2920 C.ar       1 <1>        0.070
     14 C2         -3.1150   -3.1890   31.0210 C.ar       1 <1>        0.050
     15 C3         -3.4230   -3.4910   32.3500 C.ar       1 <1>        0.070
     16 C4         -4.5840   -2.9640   32.9190 C.ar       1 <1>        0.100
     17 C5         -5.4130   -2.1460   32.1450 C.ar       1 <1>        0.050
     18 H1         -3.7531   -2.1181   29.2603 H          1 <1>        0.000
     19 H3         -2.7669   -4.1281   32.9321 H          1 <1>        0.000
     20 H4         -4.8399   -3.1859   33.9487 H          1 <1>        0.000
     21 N1         -1.4650   -5.0240   31.0190 N.4        1 <1>        0.960
     22 C1         -1.8530   -3.7510   30.3730 C.3        1 <1>        0.030
     23 H2         -1.2801   -4.8970   32.0017 H          1 <1>        0.000
     24 H3         -2.1930   -5.7160   30.9340 H          1 <1>        0.000
     25 H5         -2.0511   -3.9071   29.3023 H          1 <1>        0.000
     26 H6         -1.0491   -3.0071   30.4750 H          1 <1>        0.000
     27 H1         -0.6317   -5.4077   30.6013 H          1 <1>        0.000
@<TRIPOS>BOND
     1    2    1 2  
     2    1    3 am 
     3    4    3 1  
     4    3    5 1  
     5    6    7 2  
     6    6    8 1  
     7    6    9 1  
     8    8   10 1  
     9    9   11 1  
    10    1    9 1  
    11   12   13 ar 
    12   12   17 ar 
    13   13   14 ar 
    14   14   15 ar 
    15   15   16 ar 
    16   16   17 ar 
    17   13   18 1  
    18   15   19 1  
    19   16   20 1  
    20    9   17 1  
    21   21   22 1  
    22   21   23 1  
    23   21   24 1  
    24   22   25 1  
    25   22   26 1  
    26   21   27 1  
    27   14   22 1  
 
# Name:          No_7_173
# Creation time: Wed Mar 20 12:20:32 2024


@<TRIPOS>MOLECULE
000001_000001
   54    55     1     1     1
SMALL
USER_CHARGES


@<TRIPOS>ATOM
      1 C30        -7.8780   -2.2990   32.2090 C.2        1 <1>        0.060
      2 O32        -7.9100   -2.7650   31.0800 O.2        1 <1>        0.520
      3 N4         -8.9360   -2.3980   33.0750 N.am       1 <1>        0.500
      4 H          -8.8660   -2.0071   33.9928 H          1 <1>        0.000
      5 C1         -5.4310   -2.0910   32.0950 C.2        1 <1>        0.010
      6 O2         -4.5510   -2.5810   32.7830 O.2        1 <1>        0.060
      7 O3         -5.2870   -2.0260   30.7950 O.3        1 <1>        0.590
      8 C4         -6.6870   -1.5580   32.7430 C.3        1 <1>        0.010
      9 H6         -6.6250   -1.6990   33.8322 H          1 <1>        0.000
     10 H7         -6.7901   -0.4864   32.5169 H          1 <1>        0.000
     11 C1        -10.1560   -3.0670   32.6670 C.3        1 <1>        0.020
     12 C2        -10.5840   -4.0500   33.7530 C.3        1 <1>        0.160
     13 H3        -10.9498   -2.3212   32.5130 H          1 <1>        0.000
     14 H5         -9.9791   -3.6127   31.7285 H          1 <1>        0.000
     15 H6         -9.7907   -4.7963   33.9071 H          1 <1>        0.000
     16 H8        -10.7620   -3.5051   34.6918 H          1 <1>        0.000
     17 N1         -3.2110   -0.5620   29.2570 N.pl3      1 <1>        0.260
     18 C1         -2.1300   -0.2080   28.6100 C.2        1 <1>        0.060
     19 C2         -1.2560   -1.2280   28.5850 C.2        1 <1>        0.090
     20 C3         -1.5420   -3.6700   29.6520 C.ar       1 <1>        0.070
     21 C4         -2.4710   -4.4270   30.3780 C.ar       1 <1>        0.030
     22 C5         -3.7100   -3.8860   30.7590 C.ar       1 <1>        0.090
     23 C6         -4.0630   -2.5720   30.4240 C.ar       1 <1>        0.040
     24 C7         -3.1290   -1.8310   29.7010 C.ar       1 <1>        0.070
     25 C8         -1.9100   -2.3650   29.3280 C.ar       1 <1>        0.080
     26 H1         -4.0242    0.0521   29.4070 H          1 <1>        0.000
     27 H2         -1.9571    0.7676   28.1582 H          1 <1>        0.000
     28 H3         -0.2699   -1.2390   28.1230 H          1 <1>        0.000
     29 H4         -0.5817   -4.0741   29.3529 H          1 <1>        0.000
     30 H6         -4.4080   -4.4960   31.3210 H          1 <1>        0.000
     31 N1         -1.8840   -6.6760   29.5490 N.4        1 <1>        0.430
     32 C1         -2.1290   -5.8630   30.7600 C.3        1 <1>       -0.020
     33 H2         -1.1171   -6.3081   29.0081 H          1 <1>        0.000
     34 H5         -2.9667   -6.2779   31.3398 H          1 <1>        0.000
     35 H7         -1.2356   -5.8490   31.4016 H          1 <1>        0.000
     36 H1         -2.6951   -6.6980   28.9509 H          1 <1>        0.000
     37 N          -3.8880   -8.6970   30.3060 N.am       1 <1>        0.580
     38 C          -2.6260   -8.6380   30.7850 C.2        1 <1>        0.060
     39 O          -2.3330   -9.0290   31.9050 O.2        1 <1>        0.080
     40 C4         -1.5520   -8.0660   29.8950 C.3        1 <1>       -0.010
     41 H1         -4.1059   -8.3701   29.3864 H          1 <1>        0.000
     42 H2         -4.6207   -9.0708   30.8747 H          1 <1>        0.000
     43 H3         -1.4810   -8.6589   28.9712 H          1 <1>        0.000
     44 H4         -0.5737   -8.0800   30.3977 H          1 <1>        0.000
     45 C1        -11.8810   -6.0560   35.4490 C.3        1 <1>        0.200
     46 C2        -12.6970   -5.1260   34.5560 C.3        1 <1>        0.200
     47 C3        -11.8800   -4.7610   33.3200 C.3        1 <1>        0.140
     48 H4        -12.4703   -6.3201   36.3395 H          1 <1>        0.000
     49 H5        -11.6291   -6.9706   34.8922 H          1 <1>        0.000
     50 H6        -10.9553   -5.5486   35.7582 H          1 <1>        0.000
     51 H7        -12.9502   -4.2114   35.1123 H          1 <1>        0.000
     52 H8        -13.6224   -5.6337   34.2462 H          1 <1>        0.000
     53 H9        -12.4678   -4.0902   32.6762 H          1 <1>        0.000
     54 H10       -11.6281   -5.6756   32.7632 H          1 <1>        0.000
@<TRIPOS>BOND
     1    2    1 2  
     2    1    3 am 
     3    3    4 1  
     4    5    6 2  
     5    5    7 1  
     6    5    8 1  
     7    8    9 1  
     8    8   10 1  
     9    1    8 1  
    10   12   11 1  
    11   11   13 1  
    12   11   14 1  
    13   12   15 1  
    14   12   16 1  
    15    3   11 1  
    16   18   17 1  
    17   17   24 1  
    18   19   18 2  
    19   25   19 1  
    20   20   21 ar 
    21   20   25 ar 
    22   21   22 ar 
    23   22   23 ar 
    24   23   24 ar 
    25   24   25 ar 
    26   17   26 1  
    27   18   27 1  
    28   19   28 1  
    29   20   29 1  
    30   22   30 1  
    31    7   23 1  
    32   31   32 1  
    33   31   33 1  
    34   32   34 1  
    35   32   35 1  
    36   31   36 1  
    37   21   32 1  
    38   37   38 am 
    39   38   39 2  
    40   38   40 1  
    41   37   41 1  
    42   37   42 1  
    43   40   43 1  
    44   40   44 1  
    45   31   40 1  
    46   46   45 1  
    47   46   47 1  
    48   45   48 1  
    49   45   49 1  
    50   45   50 1  
    51   46   51 1  
    52   46   52 1  
    53   47   53 1  
    54   47   54 1  
    55   12   47 1  
# Name:          No_6_1
# Creation time: Wed Mar 20 12:20:32 2024


@<TRIPOS>MOLECULE
000001_000002
   45    46     1     1     1
SMALL
USER_CHARGES


@<TRIPOS>ATOM
      1 C30        -7.8780   -2.2990   32.2090 C.2        1 <1>        0.060
      2 O32        -7.9100   -2.7650   31.0800 O.2        1 <1>        0.520
      3 N4         -8.9360   -2.3980   33.0750 N.am       1 <1>        0.500
      4 H          -8.8660   -2.0071   33.9928 H          1 <1>        0.000
      5 C1         -5.4310   -2.0910   32.0950 C.2        1 <1>        0.010
      6 O2         -4.5510   -2.5810   32.7830 O.2        1 <1>        0.060
      7 O3         -5.2870   -2.0260   30.7950 O.3        1 <1>        0.590
      8 C4         -6.6870   -1.5580   32.7430 C.3        1 <1>        0.010
      9 H6         -6.6250   -1.6990   33.8322 H          1 <1>        0.000
     10 H7         -6.7901   -0.4864   32.5169 H          1 <1>        0.000
     11 C1        -10.1560   -3.0670   32.6670 C.3        1 <1>        0.060
     12 C2        -10.5840   -4.0500   33.7530 C.3        1 <1>        0.290
     13 H3        -10.9498   -2.3212   32.5130 H          1 <1>        0.000
     14 H5         -9.9791   -3.6127   31.7285 H          1 <1>        0.000
     15 H6         -9.7907   -4.7963   33.9071 H          1 <1>        0.000
     16 H7        -11.5096   -4.5578   33.4441 H          1 <1>        0.000
     17 H8        -10.7620   -3.5051   34.6918 H          1 <1>        0.000
     18 N1         -3.2110   -0.5620   29.2570 N.pl3      1 <1>        0.260
     19 C1         -2.1300   -0.2080   28.6100 C.2        1 <1>        0.060
     20 C2         -1.2560   -1.2280   28.5850 C.2        1 <1>        0.090
     21 C3         -1.5420   -3.6700   29.6520 C.ar       1 <1>        0.070
     22 C4         -2.4710   -4.4270   30.3780 C.ar       1 <1>        0.030
     23 C5         -3.7100   -3.8860   30.7590 C.ar       1 <1>        0.090
     24 C6         -4.0630   -2.5720   30.4240 C.ar       1 <1>        0.040
     25 C7         -3.1290   -1.8310   29.7010 C.ar       1 <1>        0.070
     26 C8         -1.9100   -2.3650   29.3280 C.ar       1 <1>        0.080
     27 H1         -4.0242    0.0521   29.4070 H          1 <1>        0.000
     28 H2         -1.9571    0.7676   28.1582 H          1 <1>        0.000
     29 H3         -0.2699   -1.2390   28.1230 H          1 <1>        0.000
     30 H4         -0.5817   -4.0741   29.3529 H          1 <1>        0.000
     31 H6         -4.4080   -4.4960   31.3210 H          1 <1>        0.000
     32 N1         -1.8840   -6.6760   29.5490 N.4        1 <1>        0.430
     33 C1         -2.1290   -5.8630   30.7600 C.3        1 <1>       -0.020
     34 H2         -1.1171   -6.3081   29.0081 H          1 <1>        0.000
     35 H5         -2.9667   -6.2779   31.3398 H          1 <1>        0.000
     36 H7         -1.2356   -5.8490   31.4016 H          1 <1>        0.000
     37 H1         -2.6951   -6.6980   28.9509 H          1 <1>        0.000
     38 N          -3.8170   -8.8960   29.4390 N.am       1 <1>        0.560
     39 C          -2.8010   -8.7950   30.3240 C.2        1 <1>        0.070
     40 O          -2.8630   -9.2700   31.4470 O.2        1 <1>        0.090
     41 C4         -1.5520   -8.0660   29.8950 C.3        1 <1>       -0.010
     42 H1         -3.7440   -8.4990   28.5241 H          1 <1>        0.000
     43 H2         -4.6571   -9.3731   29.6970 H          1 <1>        0.000
     44 H3         -1.1171   -8.5609   29.0142 H          1 <1>        0.000
     45 H4         -0.8022   -8.0590   30.6998 H          1 <1>        0.000
@<TRIPOS>BOND
     1    2    1 2  
     2    1    3 am 
     3    3    4 1  
     4    5    6 2  
     5    5    7 1  
     6    5    8 1  
     7    8    9 1  
     8    8   10 1  
     9    1    8 1  
    10   12   11 1  
    11   11   13 1  
    12   11   14 1  
    13   12   15 1  
    14   12   16 1  
    15   12   17 1  
    16    3   11 1  
    17   19   18 1  
    18   18   25 1  
    19   20   19 2  
    20   26   20 1  
    21   21   22 ar 
    22   21   26 ar 
    23   22   23 ar 
    24   23   24 ar 
    25   24   25 ar 
    26   25   26 ar 
    27   18   27 1  
    28   19   28 1  
    29   20   29 1  
    30   21   30 1  
    31   23   31 1  
    32    7   24 1  
    33   32   33 1  
    34   32   34 1  
    35   33   35 1  
    36   33   36 1  
    37   32   37 1  
    38   22   33 1  
    39   38   39 am 
    40   39   40 2  
    41   39   41 1  
    42   38   42 1  
    43   38   43 1  
    44   41   44 1  
    45   41   45 1  
    46   32   41 1  
# Name:          No_7_1
# Creation time: Wed Mar 20 12:20:32 2024


@<TRIPOS>MOLECULE
000001_000003
   45    46     1     1     1
SMALL
USER_CHARGES


@<TRIPOS>ATOM
      1 C30        -7.8780   -2.2990   32.2090 C.2        1 <1>        0.060
      2 O32        -7.9100   -2.7650   31.0800 O.2        1 <1>        0.520
      3 N4         -8.9360   -2.3980   33.0750 N.am       1 <1>        0.500
      4 H          -8.8660   -2.0071   33.9928 H          1 <1>        0.000
      5 C1         -5.4310   -2.0910   32.0950 C.2        1 <1>        0.010
      6 O2         -4.5510   -2.5810   32.7830 O.2        1 <1>        0.060
      7 O3         -5.2870   -2.0260   30.7950 O.3        1 <1>        0.590
      8 C4         -6.6870   -1.5580   32.7430 C.3        1 <1>        0.010
      9 H6         -6.6250   -1.6990   33.8322 H          1 <1>        0.000
     10 H7         -6.7901   -0.4864   32.5169 H          1 <1>        0.000
     11 C1        -10.1560   -3.0670   32.6670 C.3        1 <1>        0.060
     12 C2        -10.5840   -4.0500   33.7530 C.3        1 <1>        0.290
     13 H3        -10.9498   -2.3212   32.5130 H          1 <1>        0.000
     14 H5         -9.9791   -3.6127   31.7285 H          1 <1>        0.000
     15 H6         -9.7907   -4.7963   33.9071 H          1 <1>        0.000
     16 H7        -11.5096   -4.5578   33.4441 H          1 <1>        0.000
     17 H8        -10.7620   -3.5051   34.6918 H          1 <1>        0.000
     18 N1         -3.2110   -0.5620   29.2570 N.pl3      1 <1>        0.260
     19 C1         -2.1300   -0.2080   28.6100 C.2        1 <1>        0.060
     20 C2         -1.2560   -1.2280   28.5850 C.2        1 <1>        0.090
     21 C3         -1.5420   -3.6700   29.6520 C.ar       1 <1>        0.070
     22 C4         -2.4710   -4.4270   30.3780 C.ar       1 <1>        0.030
     23 C5         -3.7100   -3.8860   30.7590 C.ar       1 <1>        0.090
     24 C6         -4.0630   -2.5720   30.4240 C.ar       1 <1>        0.040
     25 C7         -3.1290   -1.8310   29.7010 C.ar       1 <1>        0.070
     26 C8         -1.9100   -2.3650   29.3280 C.ar       1 <1>        0.080
     27 H1         -4.0242    0.0521   29.4070 H          1 <1>        0.000
     28 H2         -1.9571    0.7676   28.1582 H          1 <1>        0.000
     29 H3         -0.2699   -1.2390   28.1230 H          1 <1>        0.000
     30 H4         -0.5817   -4.0741   29.3529 H          1 <1>        0.000
     31 H6         -4.4080   -4.4960   31.3210 H          1 <1>        0.000
     32 N1         -1.8840   -6.6760   29.5490 N.4        1 <1>        0.430
     33 C1         -2.1290   -5.8630   30.7600 C.3        1 <1>       -0.020
     34 H2         -1.1171   -6.3081   29.0081 H          1 <1>        0.000
     35 H5         -2.9667   -6.2779   31.3398 H          1 <1>        0.000
     36 H7         -1.2356   -5.8490   31.4016 H          1 <1>        0.000
     37 H1         -2.6951   -6.6980   28.9509 H          1 <1>        0.000
     38 N          -3.8170   -8.8960   29.4390 N.am       1 <1>        0.560
     39 C          -2.8010   -8.7950   30.3240 C.2        1 <1>        0.070
     40 O          -2.8630   -9.2700   31.4470 O.2        1 <1>        0.090
     41 C4         -1.5520   -8.0660   29.8950 C.3        1 <1>       -0.010
     42 H1         -3.7440   -8.4990   28.5241 H          1 <1>        0.000
     43 H2         -4.6571   -9.3731   29.6970 H          1 <1>        0.000
     44 H3         -1.1171   -8.5609   29.0142 H          1 <1>        0.000
     45 H4         -0.8022   -8.0590   30.6998 H          1 <1>        0.000
@<TRIPOS>BOND
     1    2    1 2  
     2    1    3 am 
     3    3    4 1  
     4    5    6 2  
     5    5    7 1  
     6    5    8 1  
     7    8    9 1  
     8    8   10 1  
     9    1    8 1  
    10   12   11 1  
    11   11   13 1  
    12   11   14 1  
    13   12   15 1  
    14   12   16 1  
    15   12   17 1  
    16    3   11 1  
    17   19   18 1  
    18   18   25 1  
    19   20   19 2  
    20   26   20 1  
    21   21   22 ar 
    22   21   26 ar 
    23   22   23 ar 
    24   23   24 ar 
    25   24   25 ar 
    26   25   26 ar 
    27   18   27 1  
    28   19   28 1  
    29   20   29 1  
    30   21   30 1  
    31   23   31 1  
    32    7   24 1  
    33   32   33 1  
    34   32   34 1  
    35   33   35 1  
    36   33   36 1  
    37   32   37 1  
    38   22   33 1  
    39   38   39 am 
    40   39   40 2  
    41   39   41 1  
    42   38   42 1  
    43   38   43 1  
    44   41   44 1  
    45   41   45 1  
    46   32   41 1  
# Name:          No_5_74
# Creation time: Wed Mar 20 12:20:32 2024


@<TRIPOS>MOLECULE
000001_000004
   45    46     1     1     1
SMALL
USER_CHARGES


@<TRIPOS>ATOM
      1 C30        -7.8780   -2.2990   32.2090 C.2        1 <1>        0.060
      2 O32        -7.9100   -2.7650   31.0800 O.2        1 <1>        0.520
      3 N4         -8.9360   -2.3980   33.0750 N.am       1 <1>        0.500
      4 H          -8.8660   -2.0071   33.9928 H          1 <1>        0.000
      5 C1         -5.4310   -2.0910   32.0950 C.2        1 <1>        0.010
      6 O2         -4.5510   -2.5810   32.7830 O.2        1 <1>        0.060
      7 O3         -5.2870   -2.0260   30.7950 O.3        1 <1>        0.590
      8 C4         -6.6870   -1.5580   32.7430 C.3        1 <1>        0.010
      9 H6         -6.6250   -1.6990   33.8322 H          1 <1>        0.000
     10 H7         -6.7901   -0.4864   32.5169 H          1 <1>        0.000
     11 C1        -10.1560   -3.0670   32.6670 C.3        1 <1>        0.060
     12 C2        -10.5840   -4.0500   33.7530 C.3        1 <1>        0.290
     13 H3        -10.9498   -2.3212   32.5130 H          1 <1>        0.000
     14 H5         -9.9791   -3.6127   31.7285 H          1 <1>        0.000
     15 H6         -9.7907   -4.7963   33.9071 H          1 <1>        0.000
     16 H7        -11.5096   -4.5578   33.4441 H          1 <1>        0.000
     17 H8        -10.7620   -3.5051   34.6918 H          1 <1>        0.000
     18 N1         -3.2110   -0.5620   29.2570 N.pl3      1 <1>        0.260
     19 C1         -2.1300   -0.2080   28.6100 C.2        1 <1>        0.060
     20 C2         -1.2560   -1.2280   28.5850 C.2        1 <1>        0.090
     21 C3         -1.5420   -3.6700   29.6520 C.ar       1 <1>        0.070
     22 C4         -2.4710   -4.4270   30.3780 C.ar       1 <1>        0.030
     23 C5         -3.7100   -3.8860   30.7590 C.ar       1 <1>        0.090
     24 C6         -4.0630   -2.5720   30.4240 C.ar       1 <1>        0.040
     25 C7         -3.1290   -1.8310   29.7010 C.ar       1 <1>        0.070
     26 C8         -1.9100   -2.3650   29.3280 C.ar       1 <1>        0.080
     27 H1         -4.0242    0.0521   29.4070 H          1 <1>        0.000
     28 H2         -1.9571    0.7676   28.1582 H          1 <1>        0.000
     29 H3         -0.2699   -1.2390   28.1230 H          1 <1>        0.000
     30 H4         -0.5817   -4.0741   29.3529 H          1 <1>        0.000
     31 H6         -4.4080   -4.4960   31.3210 H          1 <1>        0.000
     32 N1         -1.8840   -6.6760   29.5490 N.4        1 <1>        0.430
     33 C1         -2.1290   -5.8630   30.7600 C.3        1 <1>       -0.020
     34 H2         -1.1171   -6.3081   29.0081 H          1 <1>        0.000
     35 H5         -2.9667   -6.2779   31.3398 H          1 <1>        0.000
     36 H7         -1.2356   -5.8490   31.4016 H          1 <1>        0.000
     37 H1         -2.6951   -6.6980   28.9509 H          1 <1>        0.000
     38 N          -3.8170   -8.8960   29.4390 N.am       1 <1>        0.560
     39 C          -2.8010   -8.7950   30.3240 C.2        1 <1>        0.070
     40 O          -2.8630   -9.2700   31.4470 O.2        1 <1>        0.090
     41 C4         -1.5520   -8.0660   29.8950 C.3        1 <1>       -0.010
     42 H1         -3.7440   -8.4990   28.5241 H          1 <1>        0.000
     43 H2         -4.6571   -9.3731   29.6970 H          1 <1>        0.000
     44 H3         -1.1171   -8.5609   29.0142 H          1 <1>        0.000
     45 H4         -0.8022   -8.0590   30.6998 H          1 <1>        0.000
@<TRIPOS>BOND
     1    2    1 2  
     2    1    3 am 
     3    3    4 1  
     4    5    6 2  
     5    5    7 1  
     6    5    8 1  
     7    8    9 1  
     8    8   10 1  
     9    1    8 1  
    10   12   11 1  
    11   11   13 1  
    12   11   14 1  
    13   12   15 1  
    14   12   16 1  
    15   12   17 1  
    16    3   11 1  
    17   19   18 1  
    18   18   25 1  
    19   20   19 2  
    20   26   20 1  
    21   21   22 ar 
    22   21   26 ar 
    23   22   23 ar 
    24   23   24 ar 
    25   24   25 ar 
    26   25   26 ar 
    27   18   27 1  
    28   19   28 1  
    29   20   29 1  
    30   21   30 1  
    31   23   31 1  
    32    7   24 1  
    33   32   33 1  
    34   32   34 1  
    35   33   35 1  
    36   33   36 1  
    37   32   37 1  
    38   22   33 1  
    39   38   39 am 
    40   39   40 2  
    41   39   41 1  
    42   38   42 1  
    43   38   43 1  
    44   41   44 1  
    45   41   45 1  
    46   32   41 1  
# Name:          No_7_90
# Creation time: Wed Mar 20 12:20:32 2024


@<TRIPOS>MOLECULE
000001_000005
   52    53     1     1     1
SMALL
USER_CHARGES


@<TRIPOS>ATOM
      1 C30        -7.8780   -2.2990   32.2090 C.2        1 <1>        0.060
      2 O32        -7.9100   -2.7650   31.0800 O.2        1 <1>        0.520
      3 N4         -8.9360   -2.3980   33.0750 N.am       1 <1>        0.500
      4 H          -8.8660   -2.0071   33.9928 H          1 <1>        0.000
      5 C1         -5.4310   -2.0910   32.0950 C.2        1 <1>        0.010
      6 O2         -4.5510   -2.5810   32.7830 O.2        1 <1>        0.060
      7 O3         -5.2870   -2.0260   30.7950 O.3        1 <1>        0.590
      8 C4         -6.6870   -1.5580   32.7430 C.3        1 <1>        0.010
      9 H6         -6.6250   -1.6990   33.8322 H          1 <1>        0.000
     10 H7         -6.7901   -0.4864   32.5169 H          1 <1>        0.000
     11 C1        -10.1560   -3.0670   32.6670 C.3        1 <1>        0.020
     12 C2        -10.5840   -4.0500   33.7530 C.3        1 <1>        0.160
     13 H3        -10.9498   -2.3212   32.5130 H          1 <1>        0.000
     14 H5         -9.9791   -3.6127   31.7285 H          1 <1>        0.000
     15 H6         -9.7907   -4.7963   33.9071 H          1 <1>        0.000
     16 H7        -11.5096   -4.5578   33.4441 H          1 <1>        0.000
     17 N1         -3.2110   -0.5620   29.2570 N.pl3      1 <1>        0.260
     18 C1         -2.1300   -0.2080   28.6100 C.2        1 <1>        0.060
     19 C2         -1.2560   -1.2280   28.5850 C.2        1 <1>        0.090
     20 C3         -1.5420   -3.6700   29.6520 C.ar       1 <1>        0.070
     21 C4         -2.4710   -4.4270   30.3780 C.ar       1 <1>        0.030
     22 C5         -3.7100   -3.8860   30.7590 C.ar       1 <1>        0.090
     23 C6         -4.0630   -2.5720   30.4240 C.ar       1 <1>        0.040
     24 C7         -3.1290   -1.8310   29.7010 C.ar       1 <1>        0.070
     25 C8         -1.9100   -2.3650   29.3280 C.ar       1 <1>        0.080
     26 H1         -4.0242    0.0521   29.4070 H          1 <1>        0.000
     27 H2         -1.9571    0.7676   28.1582 H          1 <1>        0.000
     28 H3         -0.2699   -1.2390   28.1230 H          1 <1>        0.000
     29 H4         -0.5817   -4.0741   29.3529 H          1 <1>        0.000
     30 H6         -4.4080   -4.4960   31.3210 H          1 <1>        0.000
     31 N1         -1.8840   -6.6760   29.5490 N.4        1 <1>        0.430
     32 C1         -2.1290   -5.8630   30.7600 C.3        1 <1>       -0.020
     33 H2         -1.1171   -6.3081   29.0081 H          1 <1>        0.000
     34 H5         -2.9667   -6.2779   31.3398 H          1 <1>        0.000
     35 H7         -1.2356   -5.8490   31.4016 H          1 <1>        0.000
     36 H1         -2.6951   -6.6980   28.9509 H          1 <1>        0.000
     37 N          -3.8880   -8.6970   30.3060 N.am       1 <1>        0.580
     38 C          -2.6260   -8.6380   30.7850 C.2        1 <1>        0.060
     39 O          -2.3330   -9.0290   31.9050 O.2        1 <1>        0.080
     40 C4         -1.5520   -8.0660   29.8950 C.3        1 <1>       -0.010
     41 H1         -4.1059   -8.3701   29.3864 H          1 <1>        0.000
     42 H2         -4.6207   -9.0708   30.8747 H          1 <1>        0.000
     43 H3         -1.4810   -8.6589   28.9712 H          1 <1>        0.000
     44 H4         -0.5737   -8.0800   30.3977 H          1 <1>        0.000
     45 O1        -11.9330   -3.8550   35.8010 O.3        1 <1>        0.290
     46 C1        -10.8330   -3.2860   35.0670 C.3        1 <1>       -0.190
     47 C2        -11.7100   -5.2260   36.1800 C.3        1 <1>        0.050
     48 H4        -11.0922   -2.2452   34.8228 H          1 <1>        0.000
     49 H6         -9.9122   -3.2850   35.6688 H          1 <1>        0.000
     50 H7        -12.5961   -5.5740   36.7311 H          1 <1>        0.000
     51 H8        -10.8320   -5.3200   36.8360 H          1 <1>        0.000
     52 H9        -11.5750   -5.8669   35.2962 H          1 <1>        0.000
@<TRIPOS>BOND
     1    2    1 2  
     2    1    3 am 
     3    3    4 1  
     4    5    6 2  
     5    5    7 1  
     6    5    8 1  
     7    8    9 1  
     8    8   10 1  
     9    1    8 1  
    10   12   11 1  
    11   11   13 1  
    12   11   14 1  
    13   12   15 1  
    14   12   16 1  
    15    3   11 1  
    16   18   17 1  
    17   17   24 1  
    18   19   18 2  
    19   25   19 1  
    20   20   21 ar 
    21   20   25 ar 
    22   21   22 ar 
    23   22   23 ar 
    24   23   24 ar 
    25   24   25 ar 
    26   17   26 1  
    27   18   27 1  
    28   19   28 1  
    29   20   29 1  
    30   22   30 1  
    31    7   23 1  
    32   31   32 1  
    33   31   33 1  
    34   32   34 1  
    35   32   35 1  
    36   31   36 1  
    37   21   32 1  
    38   37   38 am 
    39   38   39 2  
    40   38   40 1  
    41   37   41 1  
    42   37   42 1  
    43   40   43 1  
    44   40   44 1  
    45   31   40 1  
    46   45   46 1  
    47   45   47 1  
    48   46   48 1  
    49   46   49 1  
    50   47   50 1  
    51   47   51 1  
    52   47   52 1  
    53   12   46 1  
# Name:          No_7_87
# Creation time: Wed Mar 20 12:20:32 2024


@<TRIPOS>MOLECULE
000001_000006
   52    53     1     1     1
SMALL
USER_CHARGES


@<TRIPOS>ATOM
      1 C30        -7.8780   -2.2990   32.2090 C.2        1 <1>        0.060
      2 O32        -7.9100   -2.7650   31.0800 O.2        1 <1>        0.520
      3 N4         -8.9360   -2.3980   33.0750 N.am       1 <1>        0.500
      4 H          -8.8660   -2.0071   33.9928 H          1 <1>        0.000
      5 C1         -5.4310   -2.0910   32.0950 C.2        1 <1>        0.010
      6 O2         -4.5510   -2.5810   32.7830 O.2        1 <1>        0.060
      7 O3         -5.2870   -2.0260   30.7950 O.3        1 <1>        0.590
      8 C4         -6.6870   -1.5580   32.7430 C.3        1 <1>        0.010
      9 H6         -6.6250   -1.6990   33.8322 H          1 <1>        0.000
     10 H7         -6.7901   -0.4864   32.5169 H          1 <1>        0.000
     11 C1        -10.1560   -3.0670   32.6670 C.3        1 <1>        0.020
     12 C2        -10.5840   -4.0500   33.7530 C.3        1 <1>        0.160
     13 H3        -10.9498   -2.3212   32.5130 H          1 <1>        0.000
     14 H5         -9.9791   -3.6127   31.7285 H          1 <1>        0.000
     15 H6         -9.7907   -4.7963   33.9071 H          1 <1>        0.000
     16 H7        -11.5096   -4.5578   33.4441 H          1 <1>        0.000
     17 N1         -3.2110   -0.5620   29.2570 N.pl3      1 <1>        0.260
     18 C1         -2.1300   -0.2080   28.6100 C.2        1 <1>        0.060
     19 C2         -1.2560   -1.2280   28.5850 C.2        1 <1>        0.090
     20 C3         -1.5420   -3.6700   29.6520 C.ar       1 <1>        0.070
     21 C4         -2.4710   -4.4270   30.3780 C.ar       1 <1>        0.030
     22 C5         -3.7100   -3.8860   30.7590 C.ar       1 <1>        0.090
     23 C6         -4.0630   -2.5720   30.4240 C.ar       1 <1>        0.040
     24 C7         -3.1290   -1.8310   29.7010 C.ar       1 <1>        0.070
     25 C8         -1.9100   -2.3650   29.3280 C.ar       1 <1>        0.080
     26 H1         -4.0242    0.0521   29.4070 H          1 <1>        0.000
     27 H2         -1.9571    0.7676   28.1582 H          1 <1>        0.000
     28 H3         -0.2699   -1.2390   28.1230 H          1 <1>        0.000
     29 H4         -0.5817   -4.0741   29.3529 H          1 <1>        0.000
     30 H6         -4.4080   -4.4960   31.3210 H          1 <1>        0.000
     31 N1         -1.8840   -6.6760   29.5490 N.4        1 <1>        0.430
     32 C1         -2.1290   -5.8630   30.7600 C.3        1 <1>       -0.020
     33 H2         -1.1171   -6.3081   29.0081 H          1 <1>        0.000
     34 H5         -2.9667   -6.2779   31.3398 H          1 <1>        0.000
     35 H7         -1.2356   -5.8490   31.4016 H          1 <1>        0.000
     36 H1         -2.6951   -6.6980   28.9509 H          1 <1>        0.000
     37 N          -3.8880   -8.6970   30.3060 N.am       1 <1>        0.580
     38 C          -2.6260   -8.6380   30.7850 C.2        1 <1>        0.060
     39 O          -2.3330   -9.0290   31.9050 O.2        1 <1>        0.080
     40 C4         -1.5520   -8.0660   29.8950 C.3        1 <1>       -0.010
     41 H1         -4.1059   -8.3701   29.3864 H          1 <1>        0.000
     42 H2         -4.6207   -9.0708   30.8747 H          1 <1>        0.000
     43 H3         -1.4810   -8.6589   28.9712 H          1 <1>        0.000
     44 H4         -0.5737   -8.0800   30.3977 H          1 <1>        0.000
     45 O1        -11.4740   -2.0210   34.8210 O.3        1 <1>        0.070
     46 C1        -10.8330   -3.2860   35.0670 C.3        1 <1>       -0.190
     47 C2        -12.7640   -2.1540   34.1950 C.3        1 <1>        0.100
     48 H4         -9.8621   -3.0860   35.5439 H          1 <1>        0.000
     49 H6        -11.4319   -3.9109   35.7459 H          1 <1>        0.000
     50 H7        -13.1740   -1.1439   34.0480 H          1 <1>        0.000
     51 H8        -13.4577   -2.7238   34.8307 H          1 <1>        0.000
     52 H9        -12.6810   -2.6441   33.2137 H          1 <1>        0.000
@<TRIPOS>BOND
     1    2    1 2  
     2    1    3 am 
     3    3    4 1  
     4    5    6 2  
     5    5    7 1  
     6    5    8 1  
     7    8    9 1  
     8    8   10 1  
     9    1    8 1  
    10   12   11 1  
    11   11   13 1  
    12   11   14 1  
    13   12   15 1  
    14   12   16 1  
    15    3   11 1  
    16   18   17 1  
    17   17   24 1  
    18   19   18 2  
    19   25   19 1  
    20   20   21 ar 
    21   20   25 ar 
    22   21   22 ar 
    23   22   23 ar 
    24   23   24 ar 
    25   24   25 ar 
    26   17   26 1  
    27   18   27 1  
    28   19   28 1  
    29   20   29 1  
    30   22   30 1  
    31    7   23 1  
    32   31   32 1  
    33   31   33 1  
    34   32   34 1  
    35   32   35 1  
    36   31   36 1  
    37   21   32 1  
    38   37   38 am 
    39   38   39 2  
    40   38   40 1  
    41   37   41 1  
    42   37   42 1  
    43   40   43 1  
    44   40   44 1  
    45   31   40 1  
    46   45   46 1  
    47   45   47 1  
    48   46   48 1  
    49   46   49 1  
    50   47   50 1  
    51   47   51 1  
    52   47   52 1  
    53   12   46 1  
# Name:          No_7_199
# Creation time: Wed Mar 20 12:20:32 2024


@<TRIPOS>MOLECULE
000001_000007
   54    55     1     1     1
SMALL
USER_CHARGES


@<TRIPOS>ATOM
      1 C30        -7.8780   -2.2990   32.2090 C.2        1 <1>        0.060
      2 O32        -7.9100   -2.7650   31.0800 O.2        1 <1>        0.520
      3 N4         -8.9360   -2.3980   33.0750 N.am       1 <1>        0.500
      4 H          -8.8660   -2.0071   33.9928 H          1 <1>        0.000
      5 C1         -5.4310   -2.0910   32.0950 C.2        1 <1>        0.010
      6 O2         -4.5510   -2.5810   32.7830 O.2        1 <1>        0.060
      7 O3         -5.2870   -2.0260   30.7950 O.3        1 <1>        0.590
      8 C4         -6.6870   -1.5580   32.7430 C.3        1 <1>        0.010
      9 H6         -6.6250   -1.6990   33.8322 H          1 <1>        0.000
     10 H7         -6.7901   -0.4864   32.5169 H          1 <1>        0.000
     11 C1        -10.1560   -3.0670   32.6670 C.3        1 <1>        0.020
     12 C2        -10.5840   -4.0500   33.7530 C.3        1 <1>        0.160
     13 H3        -10.9498   -2.3212   32.5130 H          1 <1>        0.000
     14 H5         -9.9791   -3.6127   31.7285 H          1 <1>        0.000
     15 H6         -9.7907   -4.7963   33.9071 H          1 <1>        0.000
     16 H7        -11.5096   -4.5578   33.4441 H          1 <1>        0.000
     17 N1         -3.2110   -0.5620   29.2570 N.pl3      1 <1>        0.260
     18 C1         -2.1300   -0.2080   28.6100 C.2        1 <1>        0.060
     19 C2         -1.2560   -1.2280   28.5850 C.2        1 <1>        0.090
     20 C3         -1.5420   -3.6700   29.6520 C.ar       1 <1>        0.070
     21 C4         -2.4710   -4.4270   30.3780 C.ar       1 <1>        0.030
     22 C5         -3.7100   -3.8860   30.7590 C.ar       1 <1>        0.090
     23 C6         -4.0630   -2.5720   30.4240 C.ar       1 <1>        0.040
     24 C7         -3.1290   -1.8310   29.7010 C.ar       1 <1>        0.070
     25 C8         -1.9100   -2.3650   29.3280 C.ar       1 <1>        0.080
     26 H1         -4.0242    0.0521   29.4070 H          1 <1>        0.000
     27 H2         -1.9571    0.7676   28.1582 H          1 <1>        0.000
     28 H3         -0.2699   -1.2390   28.1230 H          1 <1>        0.000
     29 H4         -0.5817   -4.0741   29.3529 H          1 <1>        0.000
     30 H6         -4.4080   -4.4960   31.3210 H          1 <1>        0.000
     31 N1         -1.8840   -6.6760   29.5490 N.4        1 <1>        0.430
     32 C1         -2.1290   -5.8630   30.7600 C.3        1 <1>       -0.020
     33 H2         -1.1171   -6.3081   29.0081 H          1 <1>        0.000
     34 H5         -2.9667   -6.2779   31.3398 H          1 <1>        0.000
     35 H7         -1.2356   -5.8490   31.4016 H          1 <1>        0.000
     36 H1         -2.6951   -6.6980   28.9509 H          1 <1>        0.000
     37 N          -3.8880   -8.6970   30.3060 N.am       1 <1>        0.580
     38 C          -2.6260   -8.6380   30.7850 C.2        1 <1>        0.060
     39 O          -2.3330   -9.0290   31.9050 O.2        1 <1>        0.080
     40 C4         -1.5520   -8.0660   29.8950 C.3        1 <1>       -0.010
     41 H1         -4.1059   -8.3701   29.3864 H          1 <1>        0.000
     42 H2         -4.6207   -9.0708   30.8747 H          1 <1>        0.000
     43 H3         -1.4810   -8.6589   28.9712 H          1 <1>        0.000
     44 H4         -0.5737   -8.0800   30.3977 H          1 <1>        0.000
     45 C1        -10.8330   -3.2860   35.0670 C.3        1 <1>       -0.060
     46 C2        -12.1700   -3.7190   35.6620 C.3        1 <1>        0.020
     47 C3        -12.1410   -5.2180   35.9430 C.3        1 <1>        0.330
     48 H4        -10.8540   -2.2049   34.8650 H          1 <1>        0.000
     49 H5        -10.0255   -3.5099   35.7796 H          1 <1>        0.000
     50 H7        -12.9780   -3.4950   34.9500 H          1 <1>        0.000
     51 H8        -12.3469   -3.1733   36.6005 H          1 <1>        0.000
     52 H9        -13.1045   -5.5302   36.3722 H          1 <1>        0.000
     53 H10       -11.3330   -5.4420   36.6550 H          1 <1>        0.000
     54 H11       -11.9631   -5.7637   35.0046 H          1 <1>        0.000
@<TRIPOS>BOND
     1    2    1 2  
     2    1    3 am 
     3    3    4 1  
     4    5    6 2  
     5    5    7 1  
     6    5    8 1  
     7    8    9 1  
     8    8   10 1  
     9    1    8 1  
    10   12   11 1  
    11   11   13 1  
    12   11   14 1  
    13   12   15 1  
    14   12   16 1  
    15    3   11 1  
    16   18   17 1  
    17   17   24 1  
    18   19   18 2  
    19   25   19 1  
    20   20   21 ar 
    21   20   25 ar 
    22   21   22 ar 
    23   22   23 ar 
    24   23   24 ar 
    25   24   25 ar 
    26   17   26 1  
    27   18   27 1  
    28   19   28 1  
    29   20   29 1  
    30   22   30 1  
    31    7   23 1  
    32   31   32 1  
    33   31   33 1  
    34   32   34 1  
    35   32   35 1  
    36   31   36 1  
    37   21   32 1  
    38   37   38 am 
    39   38   39 2  
    40   38   40 1  
    41   37   41 1  
    42   37   42 1  
    43   40   43 1  
    44   40   44 1  
    45   31   40 1  
    46   46   45 1  
    47   46   47 1  
    48   45   48 1  
    49   45   49 1  
    50   46   50 1  
    51   46   51 1  
    52   47   52 1  
    53   47   53 1  
    54   47   54 1  
    55   12   45 1  
# Name:          No_7_200
# Creation time: Wed Mar 20 12:20:32 2024


@<TRIPOS>MOLECULE
000001_000008
   54    55     1     1     1
SMALL
USER_CHARGES


@<TRIPOS>ATOM
      1 C30        -7.8780   -2.2990   32.2090 C.2        1 <1>        0.060
      2 O32        -7.9100   -2.7650   31.0800 O.2        1 <1>        0.520
      3 N4         -8.9360   -2.3980   33.0750 N.am       1 <1>        0.500
      4 H          -8.8660   -2.0071   33.9928 H          1 <1>        0.000
      5 C1         -5.4310   -2.0910   32.0950 C.2        1 <1>        0.010
      6 O2         -4.5510   -2.5810   32.7830 O.2        1 <1>        0.060
      7 O3         -5.2870   -2.0260   30.7950 O.3        1 <1>        0.590
      8 C4         -6.6870   -1.5580   32.7430 C.3        1 <1>        0.010
      9 H6         -6.6250   -1.6990   33.8322 H          1 <1>        0.000
     10 H7         -6.7901   -0.4864   32.5169 H          1 <1>        0.000
     11 C1        -10.1560   -3.0670   32.6670 C.3        1 <1>        0.020
     12 C2        -10.5840   -4.0500   33.7530 C.3        1 <1>        0.160
     13 H3        -10.9498   -2.3212   32.5130 H          1 <1>        0.000
     14 H5         -9.9791   -3.6127   31.7285 H          1 <1>        0.000
     15 H6         -9.7907   -4.7963   33.9071 H          1 <1>        0.000
     16 H7        -11.5096   -4.5578   33.4441 H          1 <1>        0.000
     17 N1         -3.2110   -0.5620   29.2570 N.pl3      1 <1>        0.260
     18 C1         -2.1300   -0.2080   28.6100 C.2        1 <1>        0.060
     19 C2         -1.2560   -1.2280   28.5850 C.2        1 <1>        0.090
     20 C3         -1.5420   -3.6700   29.6520 C.ar       1 <1>        0.070
     21 C4         -2.4710   -4.4270   30.3780 C.ar       1 <1>        0.030
     22 C5         -3.7100   -3.8860   30.7590 C.ar       1 <1>        0.090
     23 C6         -4.0630   -2.5720   30.4240 C.ar       1 <1>        0.040
     24 C7         -3.1290   -1.8310   29.7010 C.ar       1 <1>        0.070
     25 C8         -1.9100   -2.3650   29.3280 C.ar       1 <1>        0.080
     26 H1         -4.0242    0.0521   29.4070 H          1 <1>        0.000
     27 H2         -1.9571    0.7676   28.1582 H          1 <1>        0.000
     28 H3         -0.2699   -1.2390   28.1230 H          1 <1>        0.000
     29 H4         -0.5817   -4.0741   29.3529 H          1 <1>        0.000
     30 H6         -4.4080   -4.4960   31.3210 H          1 <1>        0.000
     31 N1         -1.8840   -6.6760   29.5490 N.4        1 <1>        0.430
     32 C1         -2.1290   -5.8630   30.7600 C.3        1 <1>       -0.020
     33 H2         -1.1171   -6.3081   29.0081 H          1 <1>        0.000
     34 H5         -2.9667   -6.2779   31.3398 H          1 <1>        0.000
     35 H7         -1.2356   -5.8490   31.4016 H          1 <1>        0.000
     36 H1         -2.6951   -6.6980   28.9509 H          1 <1>        0.000
     37 N          -3.8880   -8.6970   30.3060 N.am       1 <1>        0.580
     38 C          -2.6260   -8.6380   30.7850 C.2        1 <1>        0.060
     39 O          -2.3330   -9.0290   31.9050 O.2        1 <1>        0.080
     40 C4         -1.5520   -8.0660   29.8950 C.3        1 <1>       -0.010
     41 H1         -4.1059   -8.3701   29.3864 H          1 <1>        0.000
     42 H2         -4.6207   -9.0708   30.8747 H          1 <1>        0.000
     43 H3         -1.4810   -8.6589   28.9712 H          1 <1>        0.000
     44 H4         -0.5737   -8.0800   30.3977 H          1 <1>        0.000
     45 C1        -10.8330   -3.2860   35.0670 C.3        1 <1>       -0.060
     46 C2        -12.0040   -3.9210   35.8110 C.3        1 <1>        0.050
     47 C3        -11.6790   -5.3790   36.1230 C.3        1 <1>        0.260
     48 H4        -11.0672   -2.2351   34.8418 H          1 <1>        0.000
     49 H5         -9.9311   -3.3340   35.6949 H          1 <1>        0.000
     50 H7        -12.9059   -3.8730   35.1831 H          1 <1>        0.000
     51 H8        -12.1820   -3.3761   36.7498 H          1 <1>        0.000
     52 H9        -12.5239   -5.8360   36.6590 H          1 <1>        0.000
     53 H10       -10.7771   -5.4270   36.7509 H          1 <1>        0.000
     54 H11       -11.5019   -5.9244   35.1843 H          1 <1>        0.000
@<TRIPOS>BOND
     1    2    1 2  
     2    1    3 am 
     3    3    4 1  
     4    5    6 2  
     5    5    7 1  
     6    5    8 1  
     7    8    9 1  
     8    8   10 1  
     9    1    8 1  
    10   12   11 1  
    11   11   13 1  
    12   11   14 1  
    13   12   15 1  
    14   12   16 1  
    15    3   11 1  
    16   18   17 1  
    17   17   24 1  
    18   19   18 2  
    19   25   19 1  
    20   20   21 ar 
    21   20   25 ar 
    22   21   22 ar 
    23   22   23 ar 
    24   23   24 ar 
    25   24   25 ar 
    26   17   26 1  
    27   18   27 1  
    28   19   28 1  
    29   20   29 1  
    30   22   30 1  
    31    7   23 1  
    32   31   32 1  
    33   31   33 1  
    34   32   34 1  
    35   32   35 1  
    36   31   36 1  
    37   21   32 1  
    38   37   38 am 
    39   38   39 2  
    40   38   40 1  
    41   37   41 1  
    42   37   42 1  
    43   40   43 1  
    44   40   44 1  
    45   31   40 1  
    46   46   45 1  
    47   46   47 1  
    48   45   48 1  
    49   45   49 1  
    50   46   50 1  
    51   46   51 1  
    52   47   52 1  
    53   47   53 1  
    54   47   54 1  
    55   12   45 1  
# Name:          No_7_2
# Creation time: Wed Mar 20 12:20:32 2024


@<TRIPOS>MOLECULE
000001_000009
   45    46     1     1     1
SMALL
USER_CHARGES


@<TRIPOS>ATOM
      1 C30        -7.8780   -2.2990   32.2090 C.2        1 <1>        0.060
      2 O32        -7.9100   -2.7650   31.0800 O.2        1 <1>        0.520
      3 N4         -8.9360   -2.3980   33.0750 N.am       1 <1>        0.500
      4 H          -8.8660   -2.0071   33.9928 H          1 <1>        0.000
      5 C1         -5.4310   -2.0910   32.0950 C.2        1 <1>        0.010
      6 O2         -4.5510   -2.5810   32.7830 O.2        1 <1>        0.060
      7 O3         -5.2870   -2.0260   30.7950 O.3        1 <1>        0.590
      8 C4         -6.6870   -1.5580   32.7430 C.3        1 <1>        0.010
      9 H6         -6.6250   -1.6990   33.8322 H          1 <1>        0.000
     10 H7         -6.7901   -0.4864   32.5169 H          1 <1>        0.000
     11 C1        -10.1560   -3.0670   32.6670 C.3        1 <1>        0.060
     12 C2        -10.5840   -4.0500   33.7530 C.3        1 <1>        0.290
     13 H3        -10.9498   -2.3212   32.5130 H          1 <1>        0.000
     14 H5         -9.9791   -3.6127   31.7285 H          1 <1>        0.000
     15 H6         -9.7907   -4.7963   33.9071 H          1 <1>        0.000
     16 H7        -11.5096   -4.5578   33.4441 H          1 <1>        0.000
     17 H8        -10.7620   -3.5051   34.6918 H          1 <1>        0.000
     18 N1         -3.2110   -0.5620   29.2570 N.pl3      1 <1>        0.260
     19 C1         -2.1300   -0.2080   28.6100 C.2        1 <1>        0.060
     20 C2         -1.2560   -1.2280   28.5850 C.2        1 <1>        0.090
     21 C3         -1.5420   -3.6700   29.6520 C.ar       1 <1>        0.070
     22 C4         -2.4710   -4.4270   30.3780 C.ar       1 <1>        0.030
     23 C5         -3.7100   -3.8860   30.7590 C.ar       1 <1>        0.090
     24 C6         -4.0630   -2.5720   30.4240 C.ar       1 <1>        0.040
     25 C7         -3.1290   -1.8310   29.7010 C.ar       1 <1>        0.070
     26 C8         -1.9100   -2.3650   29.3280 C.ar       1 <1>        0.080
     27 H1         -4.0242    0.0521   29.4070 H          1 <1>        0.000
     28 H2         -1.9571    0.7676   28.1582 H          1 <1>        0.000
     29 H3         -0.2699   -1.2390   28.1230 H          1 <1>        0.000
     30 H4         -0.5817   -4.0741   29.3529 H          1 <1>        0.000
     31 H6         -4.4080   -4.4960   31.3210 H          1 <1>        0.000
     32 N1         -1.8840   -6.6760   29.5490 N.4        1 <1>        0.430
     33 C1         -2.1290   -5.8630   30.7600 C.3        1 <1>       -0.020
     34 H2         -1.1171   -6.3081   29.0081 H          1 <1>        0.000
     35 H5         -2.9667   -6.2779   31.3398 H          1 <1>        0.000
     36 H7         -1.2356   -5.8490   31.4016 H          1 <1>        0.000
     37 H1         -2.6951   -6.6980   28.9509 H          1 <1>        0.000
     38 N          -3.8880   -8.6970   30.3060 N.am       1 <1>        0.580
     39 C          -2.6260   -8.6380   30.7850 C.2        1 <1>        0.060
     40 O          -2.3330   -9.0290   31.9050 O.2        1 <1>        0.080
     41 C4         -1.5520   -8.0660   29.8950 C.3        1 <1>       -0.010
     42 H1         -4.1059   -8.3701   29.3864 H          1 <1>        0.000
     43 H2         -4.6207   -9.0708   30.8747 H          1 <1>        0.000
     44 H3         -1.4810   -8.6589   28.9712 H          1 <1>        0.000
     45 H4         -0.5737   -8.0800   30.3977 H          1 <1>        0.000
@<TRIPOS>BOND
     1    2    1 2  
     2    1    3 am 
     3    3    4 1  
     4    5    6 2  
     5    5    7 1  
     6    5    8 1  
     7    8    9 1  
     8    8   10 1  
     9    1    8 1  
    10   12   11 1  
    11   11   13 1  
    12   11   14 1  
    13   12   15 1  
    14   12   16 1  
    15   12   17 1  
    16    3   11 1  
    17   19   18 1  
    18   18   25 1  
    19   20   19 2  
    20   26   20 1  
    21   21   22 ar 
    22   21   26 ar 
    23   22   23 ar 
    24   23   24 ar 
    25   24   25 ar 
    26   25   26 ar 
    27   18   27 1  
    28   19   28 1  
    29   20   29 1  
    30   21   30 1  
    31   23   31 1  
    32    7   24 1  
    33   32   33 1  
    34   32   34 1  
    35   33   35 1  
    36   33   36 1  
    37   32   37 1  
    38   22   33 1  
    39   38   39 am 
    40   39   40 2  
    41   39   41 1  
    42   38   42 1  
    43   38   43 1  
    44   41   44 1  
    45   41   45 1  
    46   32   41 1  
# Name:          No_6_2
# Creation time: Wed Mar 20 12:20:32 2024


@<TRIPOS>MOLECULE
000001_000010
   45    46     1     1     1
SMALL
USER_CHARGES


@<TRIPOS>ATOM
      1 C30        -7.8780   -2.2990   32.2090 C.2        1 <1>        0.060
      2 O32        -7.9100   -2.7650   31.0800 O.2        1 <1>        0.520
      3 N4         -8.9360   -2.3980   33.0750 N.am       1 <1>        0.500
      4 H          -8.8660   -2.0071   33.9928 H          1 <1>        0.000
      5 C1         -5.4310   -2.0910   32.0950 C.2        1 <1>        0.010
      6 O2         -4.5510   -2.5810   32.7830 O.2        1 <1>        0.060
      7 O3         -5.2870   -2.0260   30.7950 O.3        1 <1>        0.590
      8 C4         -6.6870   -1.5580   32.7430 C.3        1 <1>        0.010
      9 H6         -6.6250   -1.6990   33.8322 H          1 <1>        0.000
     10 H7         -6.7901   -0.4864   32.5169 H          1 <1>        0.000
     11 C1        -10.1560   -3.0670   32.6670 C.3        1 <1>        0.060
     12 C2        -10.5840   -4.0500   33.7530 C.3        1 <1>        0.290
     13 H3        -10.9498   -2.3212   32.5130 H          1 <1>        0.000
     14 H5         -9.9791   -3.6127   31.7285 H          1 <1>        0.000
     15 H6         -9.7907   -4.7963   33.9071 H          1 <1>        0.000
     16 H7        -11.5096   -4.5578   33.4441 H          1 <1>        0.000
     17 H8        -10.7620   -3.5051   34.6918 H          1 <1>        0.000
     18 N1         -3.2110   -0.5620   29.2570 N.pl3      1 <1>        0.260
     19 C1         -2.1300   -0.2080   28.6100 C.2        1 <1>        0.060
     20 C2         -1.2560   -1.2280   28.5850 C.2        1 <1>        0.090
     21 C3         -1.5420   -3.6700   29.6520 C.ar       1 <1>        0.070
     22 C4         -2.4710   -4.4270   30.3780 C.ar       1 <1>        0.030
     23 C5         -3.7100   -3.8860   30.7590 C.ar       1 <1>        0.090
     24 C6         -4.0630   -2.5720   30.4240 C.ar       1 <1>        0.040
     25 C7         -3.1290   -1.8310   29.7010 C.ar       1 <1>        0.070
     26 C8         -1.9100   -2.3650   29.3280 C.ar       1 <1>        0.080
     27 H1         -4.0242    0.0521   29.4070 H          1 <1>        0.000
     28 H2         -1.9571    0.7676   28.1582 H          1 <1>        0.000
     29 H3         -0.2699   -1.2390   28.1230 H          1 <1>        0.000
     30 H4         -0.5817   -4.0741   29.3529 H          1 <1>        0.000
     31 H6         -4.4080   -4.4960   31.3210 H          1 <1>        0.000
     32 N1         -1.8840   -6.6760   29.5490 N.4        1 <1>        0.430
     33 C1         -2.1290   -5.8630   30.7600 C.3        1 <1>       -0.020
     34 H2         -1.1171   -6.3081   29.0081 H          1 <1>        0.000
     35 H5         -2.9667   -6.2779   31.3398 H          1 <1>        0.000
     36 H7         -1.2356   -5.8490   31.4016 H          1 <1>        0.000
     37 H1         -2.6951   -6.6980   28.9509 H          1 <1>        0.000
     38 N          -3.8880   -8.6970   30.3060 N.am       1 <1>        0.580
     39 C          -2.6260   -8.6380   30.7850 C.2        1 <1>        0.060
     40 O          -2.3330   -9.0290   31.9050 O.2        1 <1>        0.080
     41 C4         -1.5520   -8.0660   29.8950 C.3        1 <1>       -0.010
     42 H1         -4.1059   -8.3701   29.3864 H          1 <1>        0.000
     43 H2         -4.6207   -9.0708   30.8747 H          1 <1>        0.000
     44 H3         -1.4810   -8.6589   28.9712 H          1 <1>        0.000
     45 H4         -0.5737   -8.0800   30.3977 H          1 <1>        0.000
@<TRIPOS>BOND
     1    2    1 2  
     2    1    3 am 
     3    3    4 1  
     4    5    6 2  
     5    5    7 1  
     6    5    8 1  
     7    8    9 1  
     8    8   10 1  
     9    1    8 1  
    10   12   11 1  
    11   11   13 1  
    12   11   14 1  
    13   12   15 1  
    14   12   16 1  
    15   12   17 1  
    16    3   11 1  
    17   19   18 1  
    18   18   25 1  
    19   20   19 2  
    20   26   20 1  
    21   21   22 ar 
    22   21   26 ar 
    23   22   23 ar 
    24   23   24 ar 
    25   24   25 ar 
    26   25   26 ar 
    27   18   27 1  
    28   19   28 1  
    29   20   29 1  
    30   21   30 1  
    31   23   31 1  
    32    7   24 1  
    33   32   33 1  
    34   32   34 1  
    35   33   35 1  
    36   33   36 1  
    37   32   37 1  
    38   22   33 1  
    39   38   39 am 
    40   39   40 2  
    41   39   41 1  
    42   38   42 1  
    43   38   43 1  
    44   41   44 1  
    45   41   45 1  
    46   32   41 1  
# Name:          No_5_73
# Creation time: Wed Mar 20 12:20:32 2024


@<TRIPOS>MOLECULE
000001_000011
   45    46     1     1     1
SMALL
USER_CHARGES


@<TRIPOS>ATOM
      1 C30        -7.8780   -2.2990   32.2090 C.2        1 <1>        0.060
      2 O32        -7.9100   -2.7650   31.0800 O.2        1 <1>        0.520
      3 N4         -8.9360   -2.3980   33.0750 N.am       1 <1>        0.500
      4 H          -8.8660   -2.0071   33.9928 H          1 <1>        0.000
      5 C1         -5.4310   -2.0910   32.0950 C.2        1 <1>        0.010
      6 O2         -4.5510   -2.5810   32.7830 O.2        1 <1>        0.060
      7 O3         -5.2870   -2.0260   30.7950 O.3        1 <1>        0.590
      8 C4         -6.6870   -1.5580   32.7430 C.3        1 <1>        0.010
      9 H6         -6.6250   -1.6990   33.8322 H          1 <1>        0.000
     10 H7         -6.7901   -0.4864   32.5169 H          1 <1>        0.000
     11 C1        -10.1560   -3.0670   32.6670 C.3        1 <1>        0.060
     12 C2        -10.5840   -4.0500   33.7530 C.3        1 <1>        0.290
     13 H3        -10.9498   -2.3212   32.5130 H          1 <1>        0.000
     14 H5         -9.9791   -3.6127   31.7285 H          1 <1>        0.000
     15 H6         -9.7907   -4.7963   33.9071 H          1 <1>        0.000
     16 H7        -11.5096   -4.5578   33.4441 H          1 <1>        0.000
     17 H8        -10.7620   -3.5051   34.6918 H          1 <1>        0.000
     18 N1         -3.2110   -0.5620   29.2570 N.pl3      1 <1>        0.260
     19 C1         -2.1300   -0.2080   28.6100 C.2        1 <1>        0.060
     20 C2         -1.2560   -1.2280   28.5850 C.2        1 <1>        0.090
     21 C3         -1.5420   -3.6700   29.6520 C.ar       1 <1>        0.070
     22 C4         -2.4710   -4.4270   30.3780 C.ar       1 <1>        0.030
     23 C5         -3.7100   -3.8860   30.7590 C.ar       1 <1>        0.090
     24 C6         -4.0630   -2.5720   30.4240 C.ar       1 <1>        0.040
     25 C7         -3.1290   -1.8310   29.7010 C.ar       1 <1>        0.070
     26 C8         -1.9100   -2.3650   29.3280 C.ar       1 <1>        0.080
     27 H1         -4.0242    0.0521   29.4070 H          1 <1>        0.000
     28 H2         -1.9571    0.7676   28.1582 H          1 <1>        0.000
     29 H3         -0.2699   -1.2390   28.1230 H          1 <1>        0.000
     30 H4         -0.5817   -4.0741   29.3529 H          1 <1>        0.000
     31 H6         -4.4080   -4.4960   31.3210 H          1 <1>        0.000
     32 N1         -1.8840   -6.6760   29.5490 N.4        1 <1>        0.430
     33 C1         -2.1290   -5.8630   30.7600 C.3        1 <1>       -0.020
     34 H2         -1.1171   -6.3081   29.0081 H          1 <1>        0.000
     35 H5         -2.9667   -6.2779   31.3398 H          1 <1>        0.000
     36 H7         -1.2356   -5.8490   31.4016 H          1 <1>        0.000
     37 H1         -2.6951   -6.6980   28.9509 H          1 <1>        0.000
     38 N          -3.8880   -8.6970   30.3060 N.am       1 <1>        0.580
     39 C          -2.6260   -8.6380   30.7850 C.2        1 <1>        0.060
     40 O          -2.3330   -9.0290   31.9050 O.2        1 <1>        0.080
     41 C4         -1.5520   -8.0660   29.8950 C.3        1 <1>       -0.010
     42 H1         -4.1059   -8.3701   29.3864 H          1 <1>        0.000
     43 H2         -4.6207   -9.0708   30.8747 H          1 <1>        0.000
     44 H3         -1.4810   -8.6589   28.9712 H          1 <1>        0.000
     45 H4         -0.5737   -8.0800   30.3977 H          1 <1>        0.000
@<TRIPOS>BOND
     1    2    1 2  
     2    1    3 am 
     3    3    4 1  
     4    5    6 2  
     5    5    7 1  
     6    5    8 1  
     7    8    9 1  
     8    8   10 1  
     9    1    8 1  
    10   12   11 1  
    11   11   13 1  
    12   11   14 1  
    13   12   15 1  
    14   12   16 1  
    15   12   17 1  
    16    3   11 1  
    17   19   18 1  
    18   18   25 1  
    19   20   19 2  
    20   26   20 1  
    21   21   22 ar 
    22   21   26 ar 
    23   22   23 ar 
    24   23   24 ar 
    25   24   25 ar 
    26   25   26 ar 
    27   18   27 1  
    28   19   28 1  
    29   20   29 1  
    30   21   30 1  
    31   23   31 1  
    32    7   24 1  
    33   32   33 1  
    34   32   34 1  
    35   33   35 1  
    36   33   36 1  
    37   32   37 1  
    38   22   33 1  
    39   38   39 am 
    40   39   40 2  
    41   39   41 1  
    42   38   42 1  
    43   38   43 1  
    44   41   44 1  
    45   41   45 1  
    46   32   41 1  
# Name:          No_7_89
# Creation time: Wed Mar 20 12:20:32 2024


@<TRIPOS>MOLECULE
000001_000012
   52    53     1     1     1
SMALL
USER_CHARGES


@<TRIPOS>ATOM
      1 C30        -7.8780   -2.2990   32.2090 C.2        1 <1>        0.060
      2 O32        -7.9100   -2.7650   31.0800 O.2        1 <1>        0.520
      3 N4         -8.9360   -2.3980   33.0750 N.am       1 <1>        0.500
      4 H          -8.8660   -2.0071   33.9928 H          1 <1>        0.000
      5 C1         -5.4310   -2.0910   32.0950 C.2        1 <1>        0.010
      6 O2         -4.5510   -2.5810   32.7830 O.2        1 <1>        0.060
      7 O3         -5.2870   -2.0260   30.7950 O.3        1 <1>        0.590
      8 C4         -6.6870   -1.5580   32.7430 C.3        1 <1>        0.010
      9 H6         -6.6250   -1.6990   33.8322 H          1 <1>        0.000
     10 H7         -6.7901   -0.4864   32.5169 H          1 <1>        0.000
     11 C1        -10.1560   -3.0670   32.6670 C.3        1 <1>        0.020
     12 C2        -10.5840   -4.0500   33.7530 C.3        1 <1>        0.160
     13 H3        -10.9498   -2.3212   32.5130 H          1 <1>        0.000
     14 H5         -9.9791   -3.6127   31.7285 H          1 <1>        0.000
     15 H6         -9.7907   -4.7963   33.9071 H          1 <1>        0.000
     16 H7        -11.5096   -4.5578   33.4441 H          1 <1>        0.000
     17 N1         -3.2110   -0.5620   29.2570 N.pl3      1 <1>        0.260
     18 C1         -2.1300   -0.2080   28.6100 C.2        1 <1>        0.060
     19 C2         -1.2560   -1.2280   28.5850 C.2        1 <1>        0.090
     20 C3         -1.5420   -3.6700   29.6520 C.ar       1 <1>        0.070
     21 C4         -2.4710   -4.4270   30.3780 C.ar       1 <1>        0.030
     22 C5         -3.7100   -3.8860   30.7590 C.ar       1 <1>        0.090
     23 C6         -4.0630   -2.5720   30.4240 C.ar       1 <1>        0.040
     24 C7         -3.1290   -1.8310   29.7010 C.ar       1 <1>        0.070
     25 C8         -1.9100   -2.3650   29.3280 C.ar       1 <1>        0.080
     26 H1         -4.0242    0.0521   29.4070 H          1 <1>        0.000
     27 H2         -1.9571    0.7676   28.1582 H          1 <1>        0.000
     28 H3         -0.2699   -1.2390   28.1230 H          1 <1>        0.000
     29 H4         -0.5817   -4.0741   29.3529 H          1 <1>        0.000
     30 H6         -4.4080   -4.4960   31.3210 H          1 <1>        0.000
     31 N1         -1.8840   -6.6760   29.5490 N.4        1 <1>        0.430
     32 C1         -2.1290   -5.8630   30.7600 C.3        1 <1>       -0.020
     33 H2         -1.1171   -6.3081   29.0081 H          1 <1>        0.000
     34 H5         -2.9667   -6.2779   31.3398 H          1 <1>        0.000
     35 H7         -1.2356   -5.8490   31.4016 H          1 <1>        0.000
     36 H1         -2.6951   -6.6980   28.9509 H          1 <1>        0.000
     37 N          -3.8880   -8.6970   30.3060 N.am       1 <1>        0.580
     38 C          -2.6260   -8.6380   30.7850 C.2        1 <1>        0.060
     39 O          -2.3330   -9.0290   31.9050 O.2        1 <1>        0.080
     40 C4         -1.5520   -8.0660   29.8950 C.3        1 <1>       -0.010
     41 H1         -4.1059   -8.3701   29.3864 H          1 <1>        0.000
     42 H2         -4.6207   -9.0708   30.8747 H          1 <1>        0.000
     43 H3         -1.4810   -8.6589   28.9712 H          1 <1>        0.000
     44 H4         -0.5737   -8.0800   30.3977 H          1 <1>        0.000
     45 O1        -12.0880   -3.6670   35.6620 O.3        1 <1>        0.050
     46 C1        -10.8330   -3.2860   35.0670 C.3        1 <1>       -0.190
     47 C2        -12.1500   -5.0640   36.0020 C.3        1 <1>        0.140
     48 H4        -10.8770   -2.2100   34.8430 H          1 <1>        0.000
     49 H6         -9.9955   -3.4639   35.7576 H          1 <1>        0.000
     50 H7        -13.1368   -5.2600   36.4469 H          1 <1>        0.000
     51 H8        -11.3770   -5.3300   36.7380 H          1 <1>        0.000
     52 H9        -12.0370   -5.6968   35.1093 H          1 <1>        0.000
@<TRIPOS>BOND
     1    2    1 2  
     2    1    3 am 
     3    3    4 1  
     4    5    6 2  
     5    5    7 1  
     6    5    8 1  
     7    8    9 1  
     8    8   10 1  
     9    1    8 1  
    10   12   11 1  
    11   11   13 1  
    12   11   14 1  
    13   12   15 1  
    14   12   16 1  
    15    3   11 1  
    16   18   17 1  
    17   17   24 1  
    18   19   18 2  
    19   25   19 1  
    20   20   21 ar 
    21   20   25 ar 
    22   21   22 ar 
    23   22   23 ar 
    24   23   24 ar 
    25   24   25 ar 
    26   17   26 1  
    27   18   27 1  
    28   19   28 1  
    29   20   29 1  
    30   22   30 1  
    31    7   23 1  
    32   31   32 1  
    33   31   33 1  
    34   32   34 1  
    35   32   35 1  
    36   31   36 1  
    37   21   32 1  
    38   37   38 am 
    39   38   39 2  
    40   38   40 1  
    41   37   41 1  
    42   37   42 1  
    43   40   43 1  
    44   40   44 1  
    45   31   40 1  
    46   45   46 1  
    47   45   47 1  
    48   46   48 1  
    49   46   49 1  
    50   47   50 1  
    51   47   51 1  
    52   47   52 1  
    53   12   46 1  
  
# Name:          No_6_128
# Creation time: Wed Mar 20 12:23:07 2024


@<TRIPOS>MOLECULE
000001_000001
   42    43     1     1     1
SMALL
USER_CHARGES


@<TRIPOS>ATOM
      1 C45       -10.8820   -2.1360   31.6360 C.2        1 <1>        0.030
      2 O4        -10.7850   -0.9330   31.7260 O.2        1 <1>        0.500
      3 N5        -11.6110   -2.7780   30.6420 N.am       1 <1>        0.520
      4 H         -12.1111   -2.2769   29.9358 H          1 <1>        0.000
      5 H         -11.6370   -3.7776   30.6330 H          1 <1>        0.000
      6 C1        -10.2040   -3.0430   32.6210 C.3        1 <1>        0.060
      7 H4        -10.2330   -4.0774   32.2479 H          1 <1>        0.000
      8 N1         -6.6360   -2.5690   33.1830 N.pl3      1 <1>        0.360
      9 C1         -6.9620   -1.3560   32.8650 C.2        1 <1>        0.050
     10 N2         -8.1930   -1.3100   32.6270 N.2        1 <1>        0.070
     11 C2         -8.7760   -2.6150   32.7950 C.2        1 <1>        0.060
     12 C3         -7.6980   -3.3420   33.1490 C.2        1 <1>       -0.060
     13 H4         -7.7120   -4.4078   33.3720 H          1 <1>        0.000
     14 N1         -5.4080   -0.1010   31.4500 N.4        1 <1>        0.620
     15 C1         -6.0310   -0.1810   32.7890 C.3        1 <1>        0.040
     16 H2         -4.7791    0.6839   31.3830 H          1 <1>        0.000
     17 H3         -4.8775   -0.9323   31.2412 H          1 <1>        0.000
     18 H6         -6.6050    0.7331   33.0010 H          1 <1>        0.000
     19 H7         -5.2610   -0.2960   33.5660 H          1 <1>        0.000
     20 H1         -6.1022    0.0050   30.7268 H          1 <1>        0.000
     21 C1        -10.9130   -2.9670   33.9420 C.2        1 <1>        0.060
     22 O1        -10.9630   -1.8750   34.4830 O.2        1 <1>        0.090
     23 N1        -11.4610   -4.0780   34.4790 N.am       1 <1>        0.100
     24 H2        -11.3980   -4.9545   34.0017 H          1 <1>        0.000
     25 C1        -12.1470   -4.0080   35.7540 C.3        1 <1>        0.090
     26 H1        -12.7670   -3.1000   35.7880 H          1 <1>        0.000
     27 H2        -12.7879   -4.8938   35.8750 H          1 <1>        0.000
     28 H4        -11.4069   -3.9770   36.5672 H          1 <1>        0.000
     29 C1         -5.2970   -3.0080   33.5240 C.3        1 <1>        0.040
     30 C2         -4.9350   -4.2320   32.6900 C.ar       1 <1>        0.060
     31 C3         -4.6220   -5.4400   33.3200 C.ar       1 <1>        0.220
     32 C4         -4.2900   -6.5630   32.5550 C.ar       1 <1>        0.220
     33 C5         -4.2710   -6.4770   31.1600 C.ar       1 <1>        0.200
     34 C6         -4.5840   -5.2690   30.5300 C.ar       1 <1>        0.110
     35 C7         -4.9160   -4.1470   31.2950 C.ar       1 <1>        0.080
     36 H1         -5.2580   -3.2678   34.5922 H          1 <1>        0.000
     37 H3         -4.5809   -2.1989   33.3180 H          1 <1>        0.000
     38 H4         -4.6360   -5.5070   34.4018 H          1 <1>        0.000
     39 H5         -4.0469   -7.4993   33.0442 H          1 <1>        0.000
     40 H6         -4.0139   -7.3472   30.5669 H          1 <1>        0.000
     41 H7         -4.5700   -5.2020   29.4482 H          1 <1>        0.000
     42 H8         -5.1589   -3.2104   30.8062 H          1 <1>        0.000
@<TRIPOS>BOND
     1    4    3 1  
     2    3    1 am 
     3    1    2 2  
     4    3    5 1  
     5    6    7 1  
     6    1    6 1  
     7    8    9 1  
     8    8   12 1  
     9    9   10 2  
    10   10   11 1  
    11   11   12 2  
    12   12   13 1  
    13    6   11 1  
    14   14   15 1  
    15   14   16 1  
    16   14   17 1  
    17   15   18 1  
    18   15   19 1  
    19   14   20 1  
    20    9   15 1  
    21   21   22 2  
    22   21   23 am 
    23   23   24 1  
    24    6   21 1  
    25   25   26 1  
    26   25   27 1  
    27   25   28 1  
    28   23   25 1  
    29   29   30 1  
    30   30   31 ar 
    31   30   35 ar 
    32   35   34 ar 
    33   34   33 ar 
    34   33   32 ar 
    35   32   31 ar 
    36   29   36 1  
    37   29   37 1  
    38   31   38 1  
    39   32   39 1  
    40   33   40 1  
    41   34   41 1  
    42   35   42 1  
    43    8   29 1  
# Name:          No_7_2
# Creation time: Wed Mar 20 12:23:07 2024


@<TRIPOS>MOLECULE
000001_000002
   42    43     1     1     1
SMALL
USER_CHARGES


@<TRIPOS>ATOM
      1 C45       -10.8820   -2.1360   31.6360 C.2        1 <1>        0.030
      2 O4        -10.7850   -0.9330   31.7260 O.2        1 <1>        0.500
      3 N5        -11.6110   -2.7780   30.6420 N.am       1 <1>        0.520
      4 H         -12.1111   -2.2769   29.9358 H          1 <1>        0.000
      5 H         -11.6370   -3.7776   30.6330 H          1 <1>        0.000
      6 C1        -10.2040   -3.0430   32.6210 C.3        1 <1>        0.060
      7 H4        -10.2330   -4.0774   32.2479 H          1 <1>        0.000
      8 N1         -6.6360   -2.5690   33.1830 N.pl3      1 <1>        0.360
      9 C1         -6.9620   -1.3560   32.8650 C.2        1 <1>        0.050
     10 N2         -8.1930   -1.3100   32.6270 N.2        1 <1>        0.070
     11 C2         -8.7760   -2.6150   32.7950 C.2        1 <1>        0.060
     12 C3         -7.6980   -3.3420   33.1490 C.2        1 <1>       -0.060
     13 H4         -7.7120   -4.4078   33.3720 H          1 <1>        0.000
     14 N1         -5.4080   -0.1010   31.4500 N.4        1 <1>        0.620
     15 C1         -6.0310   -0.1810   32.7890 C.3        1 <1>        0.040
     16 H2         -4.7791    0.6839   31.3830 H          1 <1>        0.000
     17 H3         -4.8775   -0.9323   31.2412 H          1 <1>        0.000
     18 H6         -6.6050    0.7331   33.0010 H          1 <1>        0.000
     19 H7         -5.2610   -0.2960   33.5660 H          1 <1>        0.000
     20 H1         -6.1022    0.0050   30.7268 H          1 <1>        0.000
     21 C1        -10.9130   -2.9670   33.9420 C.2        1 <1>        0.060
     22 O1        -10.9630   -1.8750   34.4830 O.2        1 <1>        0.090
     23 N1        -11.4610   -4.0780   34.4790 N.am       1 <1>        0.100
     24 H2        -11.3980   -4.9545   34.0017 H          1 <1>        0.000
     25 C1        -12.1470   -4.0080   35.7540 C.3        1 <1>        0.090
     26 H1        -12.7670   -3.1000   35.7880 H          1 <1>        0.000
     27 H2        -12.7879   -4.8938   35.8750 H          1 <1>        0.000
     28 H4        -11.4069   -3.9770   36.5672 H          1 <1>        0.000
     29 C1         -5.2970   -3.0080   33.5240 C.3        1 <1>        0.040
     30 C2         -4.9350   -4.2320   32.6900 C.ar       1 <1>        0.060
     31 C3         -4.6220   -5.4400   33.3200 C.ar       1 <1>        0.220
     32 C4         -4.2900   -6.5630   32.5550 C.ar       1 <1>        0.220
     33 C5         -4.2710   -6.4770   31.1600 C.ar       1 <1>        0.200
     34 C6         -4.5840   -5.2690   30.5300 C.ar       1 <1>        0.110
     35 C7         -4.9160   -4.1470   31.2950 C.ar       1 <1>        0.080
     36 H1         -5.2580   -3.2678   34.5922 H          1 <1>        0.000
     37 H3         -4.5809   -2.1989   33.3180 H          1 <1>        0.000
     38 H4         -4.6360   -5.5070   34.4018 H          1 <1>        0.000
     39 H5         -4.0469   -7.4993   33.0442 H          1 <1>        0.000
     40 H6         -4.0139   -7.3472   30.5669 H          1 <1>        0.000
     41 H7         -4.5700   -5.2020   29.4482 H          1 <1>        0.000
     42 H8         -5.1589   -3.2104   30.8062 H          1 <1>        0.000
@<TRIPOS>BOND
     1    4    3 1  
     2    3    1 am 
     3    1    2 2  
     4    3    5 1  
     5    6    7 1  
     6    1    6 1  
     7    8    9 1  
     8    8   12 1  
     9    9   10 2  
    10   10   11 1  
    11   11   12 2  
    12   12   13 1  
    13    6   11 1  
    14   14   15 1  
    15   14   16 1  
    16   14   17 1  
    17   15   18 1  
    18   15   19 1  
    19   14   20 1  
    20    9   15 1  
    21   21   22 2  
    22   21   23 am 
    23   23   24 1  
    24    6   21 1  
    25   25   26 1  
    26   25   27 1  
    27   25   28 1  
    28   23   25 1  
    29   29   30 1  
    30   30   31 ar 
    31   30   35 ar 
    32   35   34 ar 
    33   34   33 ar 
    34   33   32 ar 
    35   32   31 ar 
    36   29   36 1  
    37   29   37 1  
    38   31   38 1  
    39   32   39 1  
    40   33   40 1  
    41   34   41 1  
    42   35   42 1  
    43    8   29 1  
# Name:          No_6_129
# Creation time: Wed Mar 20 12:23:07 2024


@<TRIPOS>MOLECULE
000001_000003
   42    43     1     1     1
SMALL
USER_CHARGES


@<TRIPOS>ATOM
      1 C45       -10.8820   -2.1360   31.6360 C.2        1 <1>        0.030
      2 O4        -10.7850   -0.9330   31.7260 O.2        1 <1>        0.500
      3 N5        -11.6110   -2.7780   30.6420 N.am       1 <1>        0.520
      4 H         -12.1111   -2.2769   29.9358 H          1 <1>        0.000
      5 H         -11.6370   -3.7776   30.6330 H          1 <1>        0.000
      6 C1        -10.2040   -3.0430   32.6210 C.3        1 <1>        0.060
      7 H4        -10.2330   -4.0774   32.2479 H          1 <1>        0.000
      8 N1         -6.6360   -2.5690   33.1830 N.pl3      1 <1>        0.360
      9 C1         -6.9620   -1.3560   32.8650 C.2        1 <1>        0.050
     10 N2         -8.1930   -1.3100   32.6270 N.2        1 <1>        0.070
     11 C2         -8.7760   -2.6150   32.7950 C.2        1 <1>        0.060
     12 C3         -7.6980   -3.3420   33.1490 C.2        1 <1>       -0.060
     13 H4         -7.7120   -4.4078   33.3720 H          1 <1>        0.000
     14 N1         -5.4080   -0.1010   31.4500 N.4        1 <1>        0.620
     15 C1         -6.0310   -0.1810   32.7890 C.3        1 <1>        0.040
     16 H2         -4.7791    0.6839   31.3830 H          1 <1>        0.000
     17 H3         -4.8775   -0.9323   31.2412 H          1 <1>        0.000
     18 H6         -6.6050    0.7331   33.0010 H          1 <1>        0.000
     19 H7         -5.2610   -0.2960   33.5660 H          1 <1>        0.000
     20 H1         -6.1022    0.0050   30.7268 H          1 <1>        0.000
     21 C1        -10.9130   -2.9670   33.9420 C.2        1 <1>        0.060
     22 O1        -10.9630   -1.8750   34.4830 O.2        1 <1>        0.090
     23 N1        -11.4610   -4.0780   34.4790 N.am       1 <1>        0.100
     24 H2        -11.3980   -4.9545   34.0017 H          1 <1>        0.000
     25 C1        -12.1470   -4.0080   35.7540 C.3        1 <1>        0.090
     26 H1        -12.7670   -3.1000   35.7880 H          1 <1>        0.000
     27 H2        -12.7879   -4.8938   35.8750 H          1 <1>        0.000
     28 H4        -11.4069   -3.9770   36.5672 H          1 <1>        0.000
     29 C1         -5.2970   -3.0080   33.5240 C.3        1 <1>        0.040
     30 C2         -4.8490   -4.0850   32.5420 C.ar       1 <1>        0.060
     31 C3         -4.5160   -5.3610   33.0070 C.ar       1 <1>        0.220
     32 C4         -4.1050   -6.3480   32.1070 C.ar       1 <1>        0.210
     33 C5         -4.0280   -6.0600   30.7410 C.ar       1 <1>        0.180
     34 C6         -4.3610   -4.7850   30.2760 C.ar       1 <1>        0.100
     35 C7         -4.7710   -3.7970   31.1760 C.ar       1 <1>        0.100
     36 H1         -5.2950   -3.4188   34.5444 H          1 <1>        0.000
     37 H3         -4.6059   -2.1538   33.4720 H          1 <1>        0.000
     38 H4         -4.5760   -5.5850   34.0659 H          1 <1>        0.000
     39 H5         -3.8471   -7.3375   32.4668 H          1 <1>        0.000
     40 H6         -3.7091   -6.8258   30.0432 H          1 <1>        0.000
     41 H7         -4.3000   -4.5610   29.2171 H          1 <1>        0.000
     42 H8         -5.0299   -2.8082   30.8151 H          1 <1>        0.000
@<TRIPOS>BOND
     1    4    3 1  
     2    3    1 am 
     3    1    2 2  
     4    3    5 1  
     5    6    7 1  
     6    1    6 1  
     7    8    9 1  
     8    8   12 1  
     9    9   10 2  
    10   10   11 1  
    11   11   12 2  
    12   12   13 1  
    13    6   11 1  
    14   14   15 1  
    15   14   16 1  
    16   14   17 1  
    17   15   18 1  
    18   15   19 1  
    19   14   20 1  
    20    9   15 1  
    21   21   22 2  
    22   21   23 am 
    23   23   24 1  
    24    6   21 1  
    25   25   26 1  
    26   25   27 1  
    27   25   28 1  
    28   23   25 1  
    29   29   30 1  
    30   30   31 ar 
    31   30   35 ar 
    32   35   34 ar 
    33   34   33 ar 
    34   33   32 ar 
    35   32   31 ar 
    36   29   36 1  
    37   29   37 1  
    38   31   38 1  
    39   32   39 1  
    40   33   40 1  
    41   34   41 1  
    42   35   42 1  
    43    8   29 1  
# Name:          No_7_5
# Creation time: Wed Mar 20 12:23:07 2024


@<TRIPOS>MOLECULE
000001_000004
   42    43     1     1     1
SMALL
USER_CHARGES


@<TRIPOS>ATOM
      1 C45       -10.8820   -2.1360   31.6360 C.2        1 <1>        0.030
      2 O4        -10.7850   -0.9330   31.7260 O.2        1 <1>        0.500
      3 N5        -11.6110   -2.7780   30.6420 N.am       1 <1>        0.520
      4 H         -12.1111   -2.2769   29.9358 H          1 <1>        0.000
      5 H         -11.6370   -3.7776   30.6330 H          1 <1>        0.000
      6 C1        -10.2040   -3.0430   32.6210 C.3        1 <1>        0.060
      7 H4        -10.2330   -4.0774   32.2479 H          1 <1>        0.000
      8 N1         -6.6360   -2.5690   33.1830 N.pl3      1 <1>        0.360
      9 C1         -6.9620   -1.3560   32.8650 C.2        1 <1>        0.050
     10 N2         -8.1930   -1.3100   32.6270 N.2        1 <1>        0.070
     11 C2         -8.7760   -2.6150   32.7950 C.2        1 <1>        0.060
     12 C3         -7.6980   -3.3420   33.1490 C.2        1 <1>       -0.060
     13 H4         -7.7120   -4.4078   33.3720 H          1 <1>        0.000
     14 N1         -5.4080   -0.1010   31.4500 N.4        1 <1>        0.620
     15 C1         -6.0310   -0.1810   32.7890 C.3        1 <1>        0.040
     16 H2         -4.7791    0.6839   31.3830 H          1 <1>        0.000
     17 H3         -4.8775   -0.9323   31.2412 H          1 <1>        0.000
     18 H6         -6.6050    0.7331   33.0010 H          1 <1>        0.000
     19 H7         -5.2610   -0.2960   33.5660 H          1 <1>        0.000
     20 H1         -6.1022    0.0050   30.7268 H          1 <1>        0.000
     21 C1        -10.9130   -2.9670   33.9420 C.2        1 <1>        0.060
     22 O1        -10.9630   -1.8750   34.4830 O.2        1 <1>        0.090
     23 N1        -11.4610   -4.0780   34.4790 N.am       1 <1>        0.100
     24 H2        -11.3980   -4.9545   34.0017 H          1 <1>        0.000
     25 C1        -12.1470   -4.0080   35.7540 C.3        1 <1>        0.090
     26 H1        -12.7670   -3.1000   35.7880 H          1 <1>        0.000
     27 H2        -12.7879   -4.8938   35.8750 H          1 <1>        0.000
     28 H4        -11.4069   -3.9770   36.5672 H          1 <1>        0.000
     29 C1         -5.2970   -3.0080   33.5240 C.3        1 <1>        0.040
     30 C2         -4.8490   -4.0850   32.5420 C.ar       1 <1>        0.060
     31 C3         -4.5160   -5.3610   33.0070 C.ar       1 <1>        0.220
     32 C4         -4.1050   -6.3480   32.1070 C.ar       1 <1>        0.210
     33 C5         -4.0280   -6.0600   30.7410 C.ar       1 <1>        0.180
     34 C6         -4.3610   -4.7850   30.2760 C.ar       1 <1>        0.100
     35 C7         -4.7710   -3.7970   31.1760 C.ar       1 <1>        0.100
     36 H1         -5.2950   -3.4188   34.5444 H          1 <1>        0.000
     37 H3         -4.6059   -2.1538   33.4720 H          1 <1>        0.000
     38 H4         -4.5760   -5.5850   34.0659 H          1 <1>        0.000
     39 H5         -3.8471   -7.3375   32.4668 H          1 <1>        0.000
     40 H6         -3.7091   -6.8258   30.0432 H          1 <1>        0.000
     41 H7         -4.3000   -4.5610   29.2171 H          1 <1>        0.000
     42 H8         -5.0299   -2.8082   30.8151 H          1 <1>        0.000
@<TRIPOS>BOND
     1    4    3 1  
     2    3    1 am 
     3    1    2 2  
     4    3    5 1  
     5    6    7 1  
     6    1    6 1  
     7    8    9 1  
     8    8   12 1  
     9    9   10 2  
    10   10   11 1  
    11   11   12 2  
    12   12   13 1  
    13    6   11 1  
    14   14   15 1  
    15   14   16 1  
    16   14   17 1  
    17   15   18 1  
    18   15   19 1  
    19   14   20 1  
    20    9   15 1  
    21   21   22 2  
    22   21   23 am 
    23   23   24 1  
    24    6   21 1  
    25   25   26 1  
    26   25   27 1  
    27   25   28 1  
    28   23   25 1  
    29   29   30 1  
    30   30   31 ar 
    31   30   35 ar 
    32   35   34 ar 
    33   34   33 ar 
    34   33   32 ar 
    35   32   31 ar 
    36   29   36 1  
    37   29   37 1  
    38   31   38 1  
    39   32   39 1  
    40   33   40 1  
    41   34   41 1  
    42   35   42 1  
    43    8   29 1  
# Name:          No_6_47
# Creation time: Wed Mar 20 12:23:07 2024


@<TRIPOS>MOLECULE
000001_000005
   47    48     1     1     1
SMALL
USER_CHARGES


@<TRIPOS>ATOM
      1 C45       -10.8820   -2.1360   31.6360 C.2        1 <1>        0.030
      2 O4        -10.7850   -0.9330   31.7260 O.2        1 <1>        0.500
      3 N5        -11.6110   -2.7780   30.6420 N.am       1 <1>        0.490
      4 H         -11.6370   -3.7776   30.6330 H          1 <1>        0.000
      5 C1        -10.2040   -3.0430   32.6210 C.3        1 <1>        0.060
      6 H4        -10.2330   -4.0774   32.2479 H          1 <1>        0.000
      7 N1         -6.6360   -2.5690   33.1830 N.pl3      1 <1>        0.360
      8 C1         -6.9620   -1.3560   32.8650 C.2        1 <1>        0.050
      9 N2         -8.1930   -1.3100   32.6270 N.2        1 <1>        0.070
     10 C2         -8.7760   -2.6150   32.7950 C.2        1 <1>        0.060
     11 C3         -7.6980   -3.3420   33.1490 C.2        1 <1>       -0.060
     12 H4         -7.7120   -4.4078   33.3720 H          1 <1>        0.000
     13 N1         -5.4080   -0.1010   31.4500 N.4        1 <1>        0.620
     14 C1         -6.0310   -0.1810   32.7890 C.3        1 <1>        0.040
     15 H2         -4.7791    0.6839   31.3830 H          1 <1>        0.000
     16 H3         -4.8775   -0.9323   31.2412 H          1 <1>        0.000
     17 H6         -6.6050    0.7331   33.0010 H          1 <1>        0.000
     18 H7         -5.2610   -0.2960   33.5660 H          1 <1>        0.000
     19 H1         -6.1022    0.0050   30.7268 H          1 <1>        0.000
     20 C1        -10.9130   -2.9670   33.9420 C.2        1 <1>        0.060
     21 O1        -10.9630   -1.8750   34.4830 O.2        1 <1>        0.090
     22 N1        -11.4610   -4.0780   34.4790 N.am       1 <1>        0.100
     23 H2        -11.3980   -4.9545   34.0017 H          1 <1>        0.000
     24 H3        -11.9343   -4.0300   35.3586 H          1 <1>        0.000
     25 C1        -11.9510   -1.0810   27.2200 C.3        1 <1>        0.020
     26 C2        -11.4330   -1.8210   28.4300 C.2        1 <1>        0.010
     27 C3        -12.3360   -2.0510   29.6180 C.3        1 <1>       -0.020
     28 O4        -10.2940   -2.2290   28.4470 O.2        1 <1>        0.070
     29 H5        -12.2650   -0.0689   27.5150 H          1 <1>        0.000
     30 H6        -12.8108   -1.6229   26.7991 H          1 <1>        0.000
     31 H7        -11.1559   -1.0120   26.4629 H          1 <1>        0.000
     32 H8        -13.2126   -2.6367   29.3041 H          1 <1>        0.000
     33 H9        -12.6670   -1.0821   30.0200 H          1 <1>        0.000
     34 C1         -5.2970   -3.0080   33.5240 C.3        1 <1>        0.040
     35 C2         -4.9350   -4.2320   32.6900 C.ar       1 <1>        0.060
     36 C3         -4.6220   -5.4400   33.3200 C.ar       1 <1>        0.220
     37 C4         -4.2900   -6.5630   32.5550 C.ar       1 <1>        0.220
     38 C5         -4.2710   -6.4770   31.1600 C.ar       1 <1>        0.200
     39 C6         -4.5840   -5.2690   30.5300 C.ar       1 <1>        0.110
     40 C7         -4.9160   -4.1470   31.2950 C.ar       1 <1>        0.080
     41 H1         -5.2580   -3.2678   34.5922 H          1 <1>        0.000
     42 H3         -4.5809   -2.1989   33.3180 H          1 <1>        0.000
     43 H4         -4.6360   -5.5070   34.4018 H          1 <1>        0.000
     44 H5         -4.0469   -7.4993   33.0442 H          1 <1>        0.000
     45 H6         -4.0139   -7.3472   30.5669 H          1 <1>        0.000
     46 H7         -4.5700   -5.2020   29.4482 H          1 <1>        0.000
     47 H8         -5.1589   -3.2104   30.8062 H          1 <1>        0.000
@<TRIPOS>BOND
     1    3    1 am 
     2    1    2 2  
     3    3    4 1  
     4    5    6 1  
     5    1    5 1  
     6    7    8 1  
     7    7   11 1  
     8    8    9 2  
     9    9   10 1  
    10   10   11 2  
    11   11   12 1  
    12    5   10 1  
    13   13   14 1  
    14   13   15 1  
    15   13   16 1  
    16   14   17 1  
    17   14   18 1  
    18   13   19 1  
    19    8   14 1  
    20   20   21 2  
    21   20   22 am 
    22   22   23 1  
    23   22   24 1  
    24    5   20 1  
    25   26   25 1  
    26   26   27 1  
    27   26   28 2  
    28   25   29 1  
    29   25   30 1  
    30   25   31 1  
    31   27   32 1  
    32   27   33 1  
    33    3   27 1  
    34   34   35 1  
    35   35   36 ar 
    36   35   40 ar 
    37   40   39 ar 
    38   39   38 ar 
    39   38   37 ar 
    40   37   36 ar 
    41   34   41 1  
    42   34   42 1  
    43   36   43 1  
    44   37   44 1  
    45   38   45 1  
    46   39   46 1  
    47   40   47 1  
    48    7   34 1  
# Name:          No_6_48
# Creation time: Wed Mar 20 12:23:07 2024


@<TRIPOS>MOLECULE
000001_000006
   47    48     1     1     1
SMALL
USER_CHARGES


@<TRIPOS>ATOM
      1 C45       -10.8820   -2.1360   31.6360 C.2        1 <1>        0.030
      2 O4        -10.7850   -0.9330   31.7260 O.2        1 <1>        0.500
      3 N5        -11.6110   -2.7780   30.6420 N.am       1 <1>        0.490
      4 H         -11.6370   -3.7776   30.6330 H          1 <1>        0.000
      5 C1        -10.2040   -3.0430   32.6210 C.3        1 <1>        0.060
      6 H4        -10.2330   -4.0774   32.2479 H          1 <1>        0.000
      7 N1         -6.6360   -2.5690   33.1830 N.pl3      1 <1>        0.360
      8 C1         -6.9620   -1.3560   32.8650 C.2        1 <1>        0.050
      9 N2         -8.1930   -1.3100   32.6270 N.2        1 <1>        0.070
     10 C2         -8.7760   -2.6150   32.7950 C.2        1 <1>        0.060
     11 C3         -7.6980   -3.3420   33.1490 C.2        1 <1>       -0.060
     12 H4         -7.7120   -4.4078   33.3720 H          1 <1>        0.000
     13 N1         -5.4080   -0.1010   31.4500 N.4        1 <1>        0.620
     14 C1         -6.0310   -0.1810   32.7890 C.3        1 <1>        0.040
     15 H2         -4.7791    0.6839   31.3830 H          1 <1>        0.000
     16 H3         -4.8775   -0.9323   31.2412 H          1 <1>        0.000
     17 H6         -6.6050    0.7331   33.0010 H          1 <1>        0.000
     18 H7         -5.2610   -0.2960   33.5660 H          1 <1>        0.000
     19 H1         -6.1022    0.0050   30.7268 H          1 <1>        0.000
     20 C1        -10.9130   -2.9670   33.9420 C.2        1 <1>        0.060
     21 O1        -10.9630   -1.8750   34.4830 O.2        1 <1>        0.090
     22 N1        -11.4610   -4.0780   34.4790 N.am       1 <1>        0.100
     23 H2        -11.3980   -4.9545   34.0017 H          1 <1>        0.000
     24 H3        -11.9343   -4.0300   35.3586 H          1 <1>        0.000
     25 C1        -11.9510   -1.0810   27.2200 C.3        1 <1>        0.020
     26 C2        -11.4330   -1.8210   28.4300 C.2        1 <1>        0.010
     27 C3        -12.3360   -2.0510   29.6180 C.3        1 <1>       -0.020
     28 O4        -10.2940   -2.2290   28.4470 O.2        1 <1>        0.070
     29 H5        -12.2650   -0.0689   27.5150 H          1 <1>        0.000
     30 H6        -12.8108   -1.6229   26.7991 H          1 <1>        0.000
     31 H7        -11.1559   -1.0120   26.4629 H          1 <1>        0.000
     32 H8        -13.2126   -2.6367   29.3041 H          1 <1>        0.000
     33 H9        -12.6670   -1.0821   30.0200 H          1 <1>        0.000
     34 C1         -5.2970   -3.0080   33.5240 C.3        1 <1>        0.040
     35 C2         -4.8490   -4.0850   32.5420 C.ar       1 <1>        0.060
     36 C3         -4.5160   -5.3610   33.0070 C.ar       1 <1>        0.220
     37 C4         -4.1050   -6.3480   32.1070 C.ar       1 <1>        0.210
     38 C5         -4.0280   -6.0600   30.7410 C.ar       1 <1>        0.180
     39 C6         -4.3610   -4.7850   30.2760 C.ar       1 <1>        0.100
     40 C7         -4.7710   -3.7970   31.1760 C.ar       1 <1>        0.100
     41 H1         -5.2950   -3.4188   34.5444 H          1 <1>        0.000
     42 H3         -4.6059   -2.1538   33.4720 H          1 <1>        0.000
     43 H4         -4.5760   -5.5850   34.0659 H          1 <1>        0.000
     44 H5         -3.8471   -7.3375   32.4668 H          1 <1>        0.000
     45 H6         -3.7091   -6.8258   30.0432 H          1 <1>        0.000
     46 H7         -4.3000   -4.5610   29.2171 H          1 <1>        0.000
     47 H8         -5.0299   -2.8082   30.8151 H          1 <1>        0.000
@<TRIPOS>BOND
     1    3    1 am 
     2    1    2 2  
     3    3    4 1  
     4    5    6 1  
     5    1    5 1  
     6    7    8 1  
     7    7   11 1  
     8    8    9 2  
     9    9   10 1  
    10   10   11 2  
    11   11   12 1  
    12    5   10 1  
    13   13   14 1  
    14   13   15 1  
    15   13   16 1  
    16   14   17 1  
    17   14   18 1  
    18   13   19 1  
    19    8   14 1  
    20   20   21 2  
    21   20   22 am 
    22   22   23 1  
    23   22   24 1  
    24    5   20 1  
    25   26   25 1  
    26   26   27 1  
    27   26   28 2  
    28   25   29 1  
    29   25   30 1  
    30   25   31 1  
    31   27   32 1  
    32   27   33 1  
    33    3   27 1  
    34   34   35 1  
    35   35   36 ar 
    36   35   40 ar 
    37   40   39 ar 
    38   39   38 ar 
    39   38   37 ar 
    40   37   36 ar 
    41   34   41 1  
    42   34   42 1  
    43   36   43 1  
    44   37   44 1  
    45   38   45 1  
    46   39   46 1  
    47   40   47 1  
    48    7   34 1  
# Name:          No_7_19
# Creation time: Wed Mar 20 12:23:07 2024


@<TRIPOS>MOLECULE
000002_000001
   40    41     1     1     1
SMALL
USER_CHARGES


@<TRIPOS>ATOM
      1 C30        -7.8780   -2.2990   32.2090 C.2        1 <1>        0.060
      2 O32        -7.9100   -2.7650   31.0800 O.2        1 <1>        0.520
      3 N4         -8.9360   -2.3980   33.0750 N.am       1 <1>        0.500
      4 H          -8.8660   -2.0071   33.9928 H          1 <1>        0.000
      5 C1         -6.6870   -1.5580   32.7430 C.3        1 <1>        0.010
      6 H2         -6.7960   -1.4230   33.8292 H          1 <1>        0.000
      7 H4         -5.7736   -2.1346   32.5351 H          1 <1>        0.000
      8 C1         -6.5910   -0.1810   32.0610 C.3        1 <1>        0.040
      9 H2         -7.5935    0.1422   31.7438 H          1 <1>        0.000
     10 O3         -6.0520    0.7710   32.9820 O.3        1 <1>        0.450
     11 H4         -5.9338   -0.2520   31.1818 H          1 <1>        0.000
     12 H6         -5.1857    0.4989   33.2611 H          1 <1>        0.000
     13 C1        -11.1230   -2.0530   32.1060 C.2        1 <1>       -0.010
     14 O2        -10.8100   -0.8750   32.0550 O.2        1 <1>        0.500
     15 O3        -12.2980   -2.4380   31.6730 O.3        1 <1>        0.130
     16 C4        -10.1560   -3.0670   32.6670 C.3        1 <1>        0.060
     17 H8         -9.9230   -3.8171   31.8969 H          1 <1>        0.000
     18 N1        -11.9170   -4.9470   36.0520 N.ar       1 <1>        0.540
     19 C1        -11.7690   -3.6070   35.9970 C.ar       1 <1>        0.040
     20 N2        -11.2090   -3.0190   34.9200 N.ar       1 <1>        0.100
     21 C2        -10.7850   -3.7560   33.8730 C.ar       1 <1>        0.070
     22 C3        -10.9260   -5.1460   33.9030 C.ar       1 <1>        0.180
     23 C4        -11.5090   -5.7280   35.0310 C.ar       1 <1>       -0.010
     24 H1        -12.1029   -2.9961   36.8279 H          1 <1>        0.000
     25 H3        -10.5921   -5.7569   33.0721 H          1 <1>        0.000
     26 H4        -11.6360   -6.8028   35.0930 H          1 <1>        0.000
     27 C1        -13.0350   -1.3110   31.1900 C.3        1 <1>       -0.050
     28 C2        -12.3460   -0.7450   29.9530 C.ar       1 <1>       -0.000
     29 C3        -11.8860    0.5760   29.9520 C.ar       1 <1>        0.090
     30 C4        -11.2540    1.0950   28.8180 C.ar       1 <1>        0.050
     31 C5        -11.0820    0.2940   27.6850 C.ar       1 <1>        0.150
     32 C6        -11.5420   -1.0270   27.6860 C.ar       1 <1>        0.150
     33 C7        -12.1740   -1.5460   28.8210 C.ar       1 <1>        0.160
     34 H1        -13.0770   -0.5383   31.9717 H          1 <1>        0.000
     35 H3        -14.0566   -1.6252   30.9299 H          1 <1>        0.000
     36 H4        -12.0190    1.1972   30.8303 H          1 <1>        0.000
     37 H5        -10.8980    2.1189   28.8170 H          1 <1>        0.000
     38 H6        -10.5926    0.6963   26.8054 H          1 <1>        0.000
     39 H7        -11.4090   -1.6482   26.8077 H          1 <1>        0.000
     40 H8        -12.5303   -2.5698   28.8220 H          1 <1>        0.000
@<TRIPOS>BOND
     1    2    1 2  
     2    1    3 am 
     3    3    4 1  
     4    5    6 1  
     5    5    7 1  
     6    1    5 1  
     7    8    9 1  
     8    8   10 1  
     9    8   11 1  
    10   10   12 1  
    11    5    8 1  
    12   13   14 2  
    13   13   15 1  
    14   13   16 1  
    15   16   17 1  
    16    3   16 1  
    17   18   19 ar 
    18   18   23 ar 
    19   19   20 ar 
    20   20   21 ar 
    21   21   22 ar 
    22   22   23 ar 
    23   19   24 1  
    24   22   25 1  
    25   23   26 1  
    26   16   21 1  
    27   27   28 1  
    28   28   29 ar 
    29   28   33 ar 
    30   33   32 ar 
    31   32   31 ar 
    32   31   30 ar 
    33   30   29 ar 
    34   27   34 1  
    35   27   35 1  
    36   29   36 1  
    37   30   37 1  
    38   31   38 1  
    39   32   39 1  
    40   33   40 1  
    41   15   27 1  
# Name:          No_7_20
# Creation time: Wed Mar 20 12:23:07 2024


@<TRIPOS>MOLECULE
000002_000002
   40    41     1     1     1
SMALL
USER_CHARGES


@<TRIPOS>ATOM
      1 C30        -7.8780   -2.2990   32.2090 C.2        1 <1>        0.060
      2 O32        -7.9100   -2.7650   31.0800 O.2        1 <1>        0.520
      3 N4         -8.9360   -2.3980   33.0750 N.am       1 <1>        0.500
      4 H          -8.8660   -2.0071   33.9928 H          1 <1>        0.000
      5 C1         -6.6870   -1.5580   32.7430 C.3        1 <1>        0.010
      6 H2         -6.7960   -1.4230   33.8292 H          1 <1>        0.000
      7 H4         -5.7736   -2.1346   32.5351 H          1 <1>        0.000
      8 C1         -6.5910   -0.1810   32.0610 C.3        1 <1>        0.040
      9 H2         -7.5935    0.1422   31.7438 H          1 <1>        0.000
     10 O3         -6.0520    0.7710   32.9820 O.3        1 <1>        0.450
     11 H4         -5.9338   -0.2520   31.1818 H          1 <1>        0.000
     12 H6         -5.1857    0.4989   33.2611 H          1 <1>        0.000
     13 C1        -11.1230   -2.0530   32.1060 C.2        1 <1>       -0.010
     14 O2        -10.8100   -0.8750   32.0550 O.2        1 <1>        0.500
     15 O3        -12.2980   -2.4380   31.6730 O.3        1 <1>        0.130
     16 C4        -10.1560   -3.0670   32.6670 C.3        1 <1>        0.060
     17 H8         -9.9230   -3.8171   31.8969 H          1 <1>        0.000
     18 N1        -11.9170   -4.9470   36.0520 N.ar       1 <1>        0.540
     19 C1        -11.7690   -3.6070   35.9970 C.ar       1 <1>        0.040
     20 N2        -11.2090   -3.0190   34.9200 N.ar       1 <1>        0.100
     21 C2        -10.7850   -3.7560   33.8730 C.ar       1 <1>        0.070
     22 C3        -10.9260   -5.1460   33.9030 C.ar       1 <1>        0.180
     23 C4        -11.5090   -5.7280   35.0310 C.ar       1 <1>       -0.010
     24 H1        -12.1029   -2.9961   36.8279 H          1 <1>        0.000
     25 H3        -10.5921   -5.7569   33.0721 H          1 <1>        0.000
     26 H4        -11.6360   -6.8028   35.0930 H          1 <1>        0.000
     27 C1        -13.0350   -1.3110   31.1900 C.3        1 <1>       -0.050
     28 C2        -12.4800   -0.8830   29.8360 C.ar       1 <1>       -0.000
     29 C3        -11.9610    0.4050   29.6680 C.ar       1 <1>        0.140
     30 C4        -11.4530    0.7970   28.4260 C.ar       1 <1>        0.150
     31 C5        -11.4630   -0.0980   27.3520 C.ar       1 <1>        0.150
     32 C6        -11.9810   -1.3850   27.5200 C.ar       1 <1>        0.030
     33 C7        -12.4900   -1.7780   28.7620 C.ar       1 <1>        0.160
     34 H1        -12.9420   -0.4792   31.9038 H          1 <1>        0.000
     35 H3        -14.0949   -1.5850   31.0830 H          1 <1>        0.000
     36 H4        -11.9540    1.0988   30.5008 H          1 <1>        0.000
     37 H5        -11.0512    1.7954   28.2961 H          1 <1>        0.000
     38 H6        -11.0688    0.2072   26.3894 H          1 <1>        0.000
     39 H7        -11.9890   -2.0788   26.6872 H          1 <1>        0.000
     40 H8        -12.8921   -2.7762   28.8920 H          1 <1>        0.000
@<TRIPOS>BOND
     1    2    1 2  
     2    1    3 am 
     3    3    4 1  
     4    5    6 1  
     5    5    7 1  
     6    1    5 1  
     7    8    9 1  
     8    8   10 1  
     9    8   11 1  
    10   10   12 1  
    11    5    8 1  
    12   13   14 2  
    13   13   15 1  
    14   13   16 1  
    15   16   17 1  
    16    3   16 1  
    17   18   19 ar 
    18   18   23 ar 
    19   19   20 ar 
    20   20   21 ar 
    21   21   22 ar 
    22   22   23 ar 
    23   19   24 1  
    24   22   25 1  
    25   23   26 1  
    26   16   21 1  
    27   27   28 1  
    28   28   29 ar 
    29   28   33 ar 
    30   33   32 ar 
    31   32   31 ar 
    32   31   30 ar 
    33   30   29 ar 
    34   27   34 1  
    35   27   35 1  
    36   29   36 1  
    37   30   37 1  
    38   31   38 1  
    39   32   39 1  
    40   33   40 1  
    41   15   27 1  
# Name:          No_5_98
# Creation time: Wed Mar 20 12:23:07 2024


@<TRIPOS>MOLECULE
000003_000001
   36    37     1     1     1
SMALL
USER_CHARGES


@<TRIPOS>ATOM
      1 C45       -10.8820   -2.1360   31.6360 C.2        1 <1>        0.030
      2 O4        -10.7850   -0.9330   31.7260 O.2        1 <1>        0.500
      3 N5        -11.6110   -2.7780   30.6420 N.am       1 <1>        0.520
      4 H         -11.6370   -3.7776   30.6330 H          1 <1>        0.000
      5 C1        -10.2040   -3.0430   32.6210 C.3        1 <1>        0.020
      6 H1        -10.7239   -2.9880   33.5888 H          1 <1>        0.000
      7 H4        -10.2330   -4.0774   32.2479 H          1 <1>        0.000
      8 N1         -6.6360   -2.5690   33.1830 N.pl3      1 <1>        0.290
      9 C1         -6.9620   -1.3560   32.8650 C.2        1 <1>        0.050
     10 N2         -8.1930   -1.3100   32.6270 N.2        1 <1>        0.070
     11 C2         -8.7760   -2.6150   32.7950 C.2        1 <1>        0.060
     12 C3         -7.6980   -3.3420   33.1490 C.2        1 <1>       -0.060
     13 H1         -5.6847   -2.8811   33.4251 H          1 <1>        0.000
     14 H4         -7.7120   -4.4078   33.3720 H          1 <1>        0.000
     15 N1         -4.7860   -0.5530   32.0800 N.4        1 <1>        0.940
     16 C1         -6.0310   -0.1810   32.7890 C.3        1 <1>        0.040
     17 H2         -4.1501    0.2269   32.0220 H          1 <1>        0.000
     18 H3         -4.3048   -1.3023   32.5522 H          1 <1>        0.000
     19 H6         -6.5440    0.6370   32.2620 H          1 <1>        0.000
     20 H7         -5.8060    0.1520   33.8130 H          1 <1>        0.000
     21 H1         -4.9770   -0.8600   31.1391 H          1 <1>        0.000
     22 C1        -13.5990   -2.4840   29.2630 C.ar       1 <1>        0.120
     23 C2        -12.3190   -2.0680   29.6420 C.ar       1 <1>        0.060
     24 C3        -11.7380   -0.9520   29.0330 C.ar       1 <1>        0.140
     25 C4        -12.4370   -0.2510   28.0460 C.ar       1 <1>        0.140
     26 C5        -13.7170   -0.6670   27.6670 C.ar       1 <1>        0.130
     27 C6        -14.2980   -1.7830   28.2760 C.ar       1 <1>        0.140
     28 H1        -14.0490   -3.3499   29.7350 H          1 <1>        0.000
     29 H4        -11.9862    0.6146   27.5742 H          1 <1>        0.000
     30 H5        -14.2587   -0.1233   26.9015 H          1 <1>        0.000
     31 H6        -15.2904   -2.1051   27.9819 H          1 <1>        0.000
     32 C1        -10.3550   -0.5030   29.4420 C.2        1 <1>        0.050
     33 O1        -10.2170    0.6740   29.7340 O.2        1 <1>        0.040
     34 N1         -9.3390   -1.3900   29.4730 N.am       1 <1>        0.430
     35 H2         -9.4941   -2.3465   29.2259 H          1 <1>        0.000
     36 H3         -8.4224   -1.0951   29.7429 H          1 <1>        0.000
@<TRIPOS>BOND
     1    3    1 am 
     2    1    2 2  
     3    3    4 1  
     4    5    6 1  
     5    5    7 1  
     6    1    5 1  
     7    8    9 1  
     8    8   12 1  
     9    9   10 2  
    10   10   11 1  
    11   11   12 2  
    12    8   13 1  
    13   12   14 1  
    14    5   11 1  
    15   15   16 1  
    16   15   17 1  
    17   15   18 1  
    18   16   19 1  
    19   16   20 1  
    20   15   21 1  
    21    9   16 1  
    22   22   23 ar 
    23   22   27 ar 
    24   23   24 ar 
    25   24   25 ar 
    26   25   26 ar 
    27   26   27 ar 
    28   22   28 1  
    29   25   29 1  
    30   26   30 1  
    31   27   31 1  
    32    3   23 1  
    33   32   33 2  
    34   32   34 am 
    35   34   35 1  
    36   34   36 1  
    37   24   32 1  
# Name:          No_6_13
# Creation time: Wed Mar 20 12:23:07 2024


@<TRIPOS>MOLECULE
000003_000002
   36    37     1     1     1
SMALL
USER_CHARGES


@<TRIPOS>ATOM
      1 C45       -10.8820   -2.1360   31.6360 C.2        1 <1>        0.030
      2 O4        -10.7850   -0.9330   31.7260 O.2        1 <1>        0.500
      3 N5        -11.6110   -2.7780   30.6420 N.am       1 <1>        0.520
      4 H         -11.6370   -3.7776   30.6330 H          1 <1>        0.000
      5 C1        -10.2040   -3.0430   32.6210 C.3        1 <1>        0.020
      6 H1        -10.7239   -2.9880   33.5888 H          1 <1>        0.000
      7 H4        -10.2330   -4.0774   32.2479 H          1 <1>        0.000
      8 N1         -6.6360   -2.5690   33.1830 N.pl3      1 <1>        0.290
      9 C1         -6.9620   -1.3560   32.8650 C.2        1 <1>        0.050
     10 N2         -8.1930   -1.3100   32.6270 N.2        1 <1>        0.070
     11 C2         -8.7760   -2.6150   32.7950 C.2        1 <1>        0.060
     12 C3         -7.6980   -3.3420   33.1490 C.2        1 <1>       -0.060
     13 H1         -5.6847   -2.8811   33.4251 H          1 <1>        0.000
     14 H4         -7.7120   -4.4078   33.3720 H          1 <1>        0.000
     15 N1         -4.7860   -0.5530   32.0800 N.4        1 <1>        0.940
     16 C1         -6.0310   -0.1810   32.7890 C.3        1 <1>        0.040
     17 H2         -4.1501    0.2269   32.0220 H          1 <1>        0.000
     18 H3         -4.3048   -1.3023   32.5522 H          1 <1>        0.000
     19 H6         -6.5440    0.6370   32.2620 H          1 <1>        0.000
     20 H7         -5.8060    0.1520   33.8130 H          1 <1>        0.000
     21 H1         -4.9770   -0.8600   31.1391 H          1 <1>        0.000
     22 C1        -13.5990   -2.4840   29.2630 C.ar       1 <1>        0.120
     23 C2        -12.3190   -2.0680   29.6420 C.ar       1 <1>        0.060
     24 C3        -11.7380   -0.9520   29.0330 C.ar       1 <1>        0.140
     25 C4        -12.4370   -0.2510   28.0460 C.ar       1 <1>        0.140
     26 C5        -13.7170   -0.6670   27.6670 C.ar       1 <1>        0.130
     27 C6        -14.2980   -1.7830   28.2760 C.ar       1 <1>        0.140
     28 H1        -14.0490   -3.3499   29.7350 H          1 <1>        0.000
     29 H4        -11.9862    0.6146   27.5742 H          1 <1>        0.000
     30 H5        -14.2587   -0.1233   26.9015 H          1 <1>        0.000
     31 H6        -15.2904   -2.1051   27.9819 H          1 <1>        0.000
     32 C1        -10.3550   -0.5030   29.4420 C.2        1 <1>        0.050
     33 O1        -10.2170    0.6740   29.7340 O.2        1 <1>        0.040
     34 N1         -9.3390   -1.3900   29.4730 N.am       1 <1>        0.430
     35 H2         -9.4941   -2.3465   29.2259 H          1 <1>        0.000
     36 H3         -8.4224   -1.0951   29.7429 H          1 <1>        0.000
@<TRIPOS>BOND
     1    3    1 am 
     2    1    2 2  
     3    3    4 1  
     4    5    6 1  
     5    5    7 1  
     6    1    5 1  
     7    8    9 1  
     8    8   12 1  
     9    9   10 2  
    10   10   11 1  
    11   11   12 2  
    12    8   13 1  
    13   12   14 1  
    14    5   11 1  
    15   15   16 1  
    16   15   17 1  
    17   15   18 1  
    18   16   19 1  
    19   16   20 1  
    20   15   21 1  
    21    9   16 1  
    22   22   23 ar 
    23   22   27 ar 
    24   23   24 ar 
    25   24   25 ar 
    26   25   26 ar 
    27   26   27 ar 
    28   22   28 1  
    29   25   29 1  
    30   26   30 1  
    31   27   31 1  
    32    3   23 1  
    33   32   33 2  
    34   32   34 am 
    35   34   35 1  
    36   34   36 1  
    37   24   32 1  
 
# Name:          No_3_53
# Creation time: Wed Mar 20 12:25:30 2024


@<TRIPOS>MOLECULE
000001_000001
   26    26     1     1     1
SMALL
USER_CHARGES


@<TRIPOS>ATOM
      1 C30        -7.8780   -2.2990   32.2090 C.2        1 <1>        0.060
      2 O32        -7.9100   -2.7650   31.0800 O.2        1 <1>        0.520
      3 N4         -8.9360   -2.3980   33.0750 N.am       1 <1>        0.540
      4 H          -9.7771   -2.8601   32.7940 H          1 <1>        0.000
      5 H          -8.8660   -2.0071   33.9928 H          1 <1>        0.000
      6 C1         -6.5930   -0.2080   32.0740 C.2        1 <1>        0.040
      7 O2         -7.4210    0.1190   31.2400 O.2        1 <1>        0.040
      8 O3         -5.6220    0.6130   32.3900 O.3        1 <1>        0.530
      9 C4         -6.6870   -1.5580   32.7430 C.3        1 <1>        0.050
     10 H5         -5.6990    1.4159   31.8881 H          1 <1>        0.000
     11 H8         -6.7960   -1.4230   33.8292 H          1 <1>        0.000
     12 N1         -5.4830   -2.3180   32.4690 N.pl3      1 <1>        0.350
     13 C1         -5.0010   -3.2050   33.2900 C.2        1 <1>        0.120
     14 C2         -3.8970   -3.7120   32.7350 C.2        1 <1>        0.100
     15 C3         -3.7520   -3.0190   31.4480 C.2        1 <1>        0.050
     16 C4         -4.7850   -2.1750   31.3800 C.2        1 <1>        0.090
     17 H2         -5.4160   -3.4890   34.2560 H          1 <1>        0.000
     18 H3         -3.2400   -4.4770   33.1460 H          1 <1>        0.000
     19 H5         -4.9990   -1.4949   30.5569 H          1 <1>        0.000
     20 N1         -1.5340   -2.3070   30.6930 N.4        1 <1>        1.350
     21 C1         -2.6690   -3.2200   30.4290 C.3        1 <1>        0.040
     22 H2         -1.1368   -2.4681   31.6054 H          1 <1>        0.000
     23 H3         -0.7978   -2.4310   30.0158 H          1 <1>        0.000
     24 H5         -3.0902   -3.0309   29.4306 H          1 <1>        0.000
     25 H7         -2.3371   -4.2677   30.4750 H          1 <1>        0.000
     26 H1         -1.8230   -1.3421   30.6540 H          1 <1>        0.000
@<TRIPOS>BOND
     1    2    1 2  
     2    1    3 am 
     3    4    3 1  
     4    3    5 1  
     5    6    7 2  
     6    6    8 1  
     7    6    9 1  
     8    8   10 1  
     9    9   11 1  
    10    1    9 1  
    11   12   13 1  
    12   12   16 1  
    13   13   14 2  
    14   14   15 1  
    15   15   16 2  
    16   13   17 1  
    17   14   18 1  
    18   16   19 1  
    19    9   12 1  
    20   20   21 1  
    21   20   22 1  
    22   20   23 1  
    23   21   24 1  
    24   21   25 1  
    25   20   26 1  
    26   15   21 1  
# Name:          No_4_1
# Creation time: Wed Mar 20 12:25:30 2024


@<TRIPOS>MOLECULE
000001_000002
   26    26     1     1     1
SMALL
USER_CHARGES


@<TRIPOS>ATOM
      1 C30        -7.8780   -2.2990   32.2090 C.2        1 <1>        0.060
      2 O32        -7.9100   -2.7650   31.0800 O.2        1 <1>        0.520
      3 N4         -8.9360   -2.3980   33.0750 N.am       1 <1>        0.540
      4 H          -9.7771   -2.8601   32.7940 H          1 <1>        0.000
      5 H          -8.8660   -2.0071   33.9928 H          1 <1>        0.000
      6 C1         -6.5930   -0.2080   32.0740 C.2        1 <1>        0.040
      7 O2         -7.4210    0.1190   31.2400 O.2        1 <1>        0.040
      8 O3         -5.6220    0.6130   32.3900 O.3        1 <1>        0.530
      9 C4         -6.6870   -1.5580   32.7430 C.3        1 <1>        0.050
     10 H5         -5.6990    1.4159   31.8881 H          1 <1>        0.000
     11 H8         -6.7960   -1.4230   33.8292 H          1 <1>        0.000
     12 N1         -5.4830   -2.3180   32.4690 N.pl3      1 <1>        0.350
     13 C1         -5.0010   -3.2050   33.2900 C.2        1 <1>        0.120
     14 C2         -3.8970   -3.7120   32.7350 C.2        1 <1>        0.100
     15 C3         -3.7520   -3.0190   31.4480 C.2        1 <1>        0.050
     16 C4         -4.7850   -2.1750   31.3800 C.2        1 <1>        0.090
     17 H2         -5.4160   -3.4890   34.2560 H          1 <1>        0.000
     18 H3         -3.2400   -4.4770   33.1460 H          1 <1>        0.000
     19 H5         -4.9990   -1.4949   30.5569 H          1 <1>        0.000
     20 N1         -1.5340   -2.3070   30.6930 N.4        1 <1>        1.350
     21 C1         -2.6690   -3.2200   30.4290 C.3        1 <1>        0.040
     22 H2         -1.1368   -2.4681   31.6054 H          1 <1>        0.000
     23 H3         -0.7978   -2.4310   30.0158 H          1 <1>        0.000
     24 H5         -3.0902   -3.0309   29.4306 H          1 <1>        0.000
     25 H7         -2.3371   -4.2677   30.4750 H          1 <1>        0.000
     26 H1         -1.8230   -1.3421   30.6540 H          1 <1>        0.000
@<TRIPOS>BOND
     1    2    1 2  
     2    1    3 am 
     3    4    3 1  
     4    3    5 1  
     5    6    7 2  
     6    6    8 1  
     7    6    9 1  
     8    8   10 1  
     9    9   11 1  
    10    1    9 1  
    11   12   13 1  
    12   12   16 1  
    13   13   14 2  
    14   14   15 1  
    15   15   16 2  
    16   13   17 1  
    17   14   18 1  
    18   16   19 1  
    19    9   12 1  
    20   20   21 1  
    21   20   22 1  
    22   20   23 1  
    23   21   24 1  
    24   21   25 1  
    25   20   26 1  
    26   15   21 1  
# Name:          No_5_1
# Creation time: Wed Mar 20 12:25:30 2024


@<TRIPOS>MOLECULE
000001_000003
   26    26     1     1     1
SMALL
USER_CHARGES


@<TRIPOS>ATOM
      1 C30        -7.8780   -2.2990   32.2090 C.2        1 <1>        0.060
      2 O32        -7.9100   -2.7650   31.0800 O.2        1 <1>        0.520
      3 N4         -8.9360   -2.3980   33.0750 N.am       1 <1>        0.540
      4 H          -9.7771   -2.8601   32.7940 H          1 <1>        0.000
      5 H          -8.8660   -2.0071   33.9928 H          1 <1>        0.000
      6 C1         -6.5930   -0.2080   32.0740 C.2        1 <1>        0.040
      7 O2         -7.4210    0.1190   31.2400 O.2        1 <1>        0.040
      8 O3         -5.6220    0.6130   32.3900 O.3        1 <1>        0.530
      9 C4         -6.6870   -1.5580   32.7430 C.3        1 <1>        0.050
     10 H5         -5.6990    1.4159   31.8881 H          1 <1>        0.000
     11 H8         -6.7960   -1.4230   33.8292 H          1 <1>        0.000
     12 N1         -5.4830   -2.3180   32.4690 N.pl3      1 <1>        0.350
     13 C1         -5.0010   -3.2050   33.2900 C.2        1 <1>        0.120
     14 C2         -3.8970   -3.7120   32.7350 C.2        1 <1>        0.100
     15 C3         -3.7520   -3.0190   31.4480 C.2        1 <1>        0.050
     16 C4         -4.7850   -2.1750   31.3800 C.2        1 <1>        0.090
     17 H2         -5.4160   -3.4890   34.2560 H          1 <1>        0.000
     18 H3         -3.2400   -4.4770   33.1460 H          1 <1>        0.000
     19 H5         -4.9990   -1.4949   30.5569 H          1 <1>        0.000
     20 N1         -1.5340   -2.3070   30.6930 N.4        1 <1>        1.350
     21 C1         -2.6690   -3.2200   30.4290 C.3        1 <1>        0.040
     22 H2         -1.1368   -2.4681   31.6054 H          1 <1>        0.000
     23 H3         -0.7978   -2.4310   30.0158 H          1 <1>        0.000
     24 H5         -3.0902   -3.0309   29.4306 H          1 <1>        0.000
     25 H7         -2.3371   -4.2677   30.4750 H          1 <1>        0.000
     26 H1         -1.8230   -1.3421   30.6540 H          1 <1>        0.000
@<TRIPOS>BOND
     1    2    1 2  
     2    1    3 am 
     3    4    3 1  
     4    3    5 1  
     5    6    7 2  
     6    6    8 1  
     7    6    9 1  
     8    8   10 1  
     9    9   11 1  
    10    1    9 1  
    11   12   13 1  
    12   12   16 1  
    13   13   14 2  
    14   14   15 1  
    15   15   16 2  
    16   13   17 1  
    17   14   18 1  
    18   16   19 1  
    19    9   12 1  
    20   20   21 1  
    21   20   22 1  
    22   20   23 1  
    23   21   24 1  
    24   21   25 1  
    25   20   26 1  
    26   15   21 1  
# Name:          No_6_1
# Creation time: Wed Mar 20 12:25:30 2024


@<TRIPOS>MOLECULE
000001_000004
   26    26     1     1     1
SMALL
USER_CHARGES


@<TRIPOS>ATOM
      1 C30        -7.8780   -2.2990   32.2090 C.2        1 <1>        0.060
      2 O32        -7.9100   -2.7650   31.0800 O.2        1 <1>        0.520
      3 N4         -8.9360   -2.3980   33.0750 N.am       1 <1>        0.540
      4 H          -9.7771   -2.8601   32.7940 H          1 <1>        0.000
      5 H          -8.8660   -2.0071   33.9928 H          1 <1>        0.000
      6 C1         -6.5930   -0.2080   32.0740 C.2        1 <1>        0.040
      7 O2         -7.4210    0.1190   31.2400 O.2        1 <1>        0.040
      8 O3         -5.6220    0.6130   32.3900 O.3        1 <1>        0.530
      9 C4         -6.6870   -1.5580   32.7430 C.3        1 <1>        0.050
     10 H5         -5.6990    1.4159   31.8881 H          1 <1>        0.000
     11 H8         -6.7960   -1.4230   33.8292 H          1 <1>        0.000
     12 N1         -5.4830   -2.3180   32.4690 N.pl3      1 <1>        0.350
     13 C1         -5.0010   -3.2050   33.2900 C.2        1 <1>        0.120
     14 C2         -3.8970   -3.7120   32.7350 C.2        1 <1>        0.100
     15 C3         -3.7520   -3.0190   31.4480 C.2        1 <1>        0.050
     16 C4         -4.7850   -2.1750   31.3800 C.2        1 <1>        0.090
     17 H2         -5.4160   -3.4890   34.2560 H          1 <1>        0.000
     18 H3         -3.2400   -4.4770   33.1460 H          1 <1>        0.000
     19 H5         -4.9990   -1.4949   30.5569 H          1 <1>        0.000
     20 N1         -1.5340   -2.3070   30.6930 N.4        1 <1>        1.350
     21 C1         -2.6690   -3.2200   30.4290 C.3        1 <1>        0.040
     22 H2         -1.1368   -2.4681   31.6054 H          1 <1>        0.000
     23 H3         -0.7978   -2.4310   30.0158 H          1 <1>        0.000
     24 H5         -3.0902   -3.0309   29.4306 H          1 <1>        0.000
     25 H7         -2.3371   -4.2677   30.4750 H          1 <1>        0.000
     26 H1         -1.8230   -1.3421   30.6540 H          1 <1>        0.000
@<TRIPOS>BOND
     1    2    1 2  
     2    1    3 am 
     3    4    3 1  
     4    3    5 1  
     5    6    7 2  
     6    6    8 1  
     7    6    9 1  
     8    8   10 1  
     9    9   11 1  
    10    1    9 1  
    11   12   13 1  
    12   12   16 1  
    13   13   14 2  
    14   14   15 1  
    15   15   16 2  
    16   13   17 1  
    17   14   18 1  
    18   16   19 1  
    19    9   12 1  
    20   20   21 1  
    21   20   22 1  
    22   20   23 1  
    23   21   24 1  
    24   21   25 1  
    25   20   26 1  
    26   15   21 1  
# Name:          No_7_1
# Creation time: Wed Mar 20 12:25:30 2024


@<TRIPOS>MOLECULE
000001_000005
   26    26     1     1     1
SMALL
USER_CHARGES


@<TRIPOS>ATOM
      1 C30        -7.8780   -2.2990   32.2090 C.2        1 <1>        0.060
      2 O32        -7.9100   -2.7650   31.0800 O.2        1 <1>        0.520
      3 N4         -8.9360   -2.3980   33.0750 N.am       1 <1>        0.540
      4 H          -9.7771   -2.8601   32.7940 H          1 <1>        0.000
      5 H          -8.8660   -2.0071   33.9928 H          1 <1>        0.000
      6 C1         -6.5930   -0.2080   32.0740 C.2        1 <1>        0.040
      7 O2         -7.4210    0.1190   31.2400 O.2        1 <1>        0.040
      8 O3         -5.6220    0.6130   32.3900 O.3        1 <1>        0.530
      9 C4         -6.6870   -1.5580   32.7430 C.3        1 <1>        0.050
     10 H5         -5.6990    1.4159   31.8881 H          1 <1>        0.000
     11 H8         -6.7960   -1.4230   33.8292 H          1 <1>        0.000
     12 N1         -5.4830   -2.3180   32.4690 N.pl3      1 <1>        0.350
     13 C1         -5.0010   -3.2050   33.2900 C.2        1 <1>        0.120
     14 C2         -3.8970   -3.7120   32.7350 C.2        1 <1>        0.100
     15 C3         -3.7520   -3.0190   31.4480 C.2        1 <1>        0.050
     16 C4         -4.7850   -2.1750   31.3800 C.2        1 <1>        0.090
     17 H2         -5.4160   -3.4890   34.2560 H          1 <1>        0.000
     18 H3         -3.2400   -4.4770   33.1460 H          1 <1>        0.000
     19 H5         -4.9990   -1.4949   30.5569 H          1 <1>        0.000
     20 N1         -1.5340   -2.3070   30.6930 N.4        1 <1>        1.350
     21 C1         -2.6690   -3.2200   30.4290 C.3        1 <1>        0.040
     22 H2         -1.1368   -2.4681   31.6054 H          1 <1>        0.000
     23 H3         -0.7978   -2.4310   30.0158 H          1 <1>        0.000
     24 H5         -3.0902   -3.0309   29.4306 H          1 <1>        0.000
     25 H7         -2.3371   -4.2677   30.4750 H          1 <1>        0.000
     26 H1         -1.8230   -1.3421   30.6540 H          1 <1>        0.000
@<TRIPOS>BOND
     1    2    1 2  
     2    1    3 am 
     3    4    3 1  
     4    3    5 1  
     5    6    7 2  
     6    6    8 1  
     7    6    9 1  
     8    8   10 1  
     9    9   11 1  
    10    1    9 1  
    11   12   13 1  
    12   12   16 1  
    13   13   14 2  
    14   14   15 1  
    15   15   16 2  
    16   13   17 1  
    17   14   18 1  
    18   16   19 1  
    19    9   12 1  
    20   20   21 1  
    21   20   22 1  
    22   20   23 1  
    23   21   24 1  
    24   21   25 1  
    25   20   26 1  
    26   15   21 1  
# Name:          No_5_2
# Creation time: Wed Mar 20 12:25:30 2024


@<TRIPOS>MOLECULE
000001_000006
   26    26     1     1     1
SMALL
USER_CHARGES


@<TRIPOS>ATOM
      1 C30        -7.8780   -2.2990   32.2090 C.2        1 <1>        0.060
      2 O32        -7.9100   -2.7650   31.0800 O.2        1 <1>        0.520
      3 N4         -8.9360   -2.3980   33.0750 N.am       1 <1>        0.540
      4 H          -9.7771   -2.8601   32.7940 H          1 <1>        0.000
      5 H          -8.8660   -2.0071   33.9928 H          1 <1>        0.000
      6 C1         -6.5930   -0.2080   32.0740 C.2        1 <1>        0.040
      7 O2         -7.4210    0.1190   31.2400 O.2        1 <1>        0.040
      8 O3         -5.6220    0.6130   32.3900 O.3        1 <1>        0.530
      9 C4         -6.6870   -1.5580   32.7430 C.3        1 <1>        0.050
     10 H5         -5.6990    1.4159   31.8881 H          1 <1>        0.000
     11 H8         -6.7960   -1.4230   33.8292 H          1 <1>        0.000
     12 N1         -5.4830   -2.3180   32.4690 N.pl3      1 <1>        0.350
     13 C1         -5.0010   -3.2050   33.2900 C.2        1 <1>        0.120
     14 C2         -3.8970   -3.7120   32.7350 C.2        1 <1>        0.100
     15 C3         -3.7520   -3.0190   31.4480 C.2        1 <1>        0.050
     16 C4         -4.7850   -2.1750   31.3800 C.2        1 <1>        0.090
     17 H2         -5.4160   -3.4890   34.2560 H          1 <1>        0.000
     18 H3         -3.2400   -4.4770   33.1460 H          1 <1>        0.000
     19 H5         -4.9990   -1.4949   30.5569 H          1 <1>        0.000
     20 N1         -1.4090   -2.5890   30.8820 N.4        1 <1>        1.190
     21 C1         -2.6690   -3.2200   30.4290 C.3        1 <1>        0.040
     22 H2         -1.0930   -2.9840   31.7539 H          1 <1>        0.000
     23 H3         -0.6711   -2.7160   30.2071 H          1 <1>        0.000
     24 H5         -2.9990   -2.7789   29.4769 H          1 <1>        0.000
     25 H7         -2.5261   -4.3006   30.2811 H          1 <1>        0.000
     26 H1         -1.5249   -1.5975   31.0219 H          1 <1>        0.000
@<TRIPOS>BOND
     1    2    1 2  
     2    1    3 am 
     3    4    3 1  
     4    3    5 1  
     5    6    7 2  
     6    6    8 1  
     7    6    9 1  
     8    8   10 1  
     9    9   11 1  
    10    1    9 1  
    11   12   13 1  
    12   12   16 1  
    13   13   14 2  
    14   14   15 1  
    15   15   16 2  
    16   13   17 1  
    17   14   18 1  
    18   16   19 1  
    19    9   12 1  
    20   20   21 1  
    21   20   22 1  
    22   20   23 1  
    23   21   24 1  
    24   21   25 1  
    25   20   26 1  
    26   15   21 1  
# Name:          No_4_2
# Creation time: Wed Mar 20 12:25:30 2024


@<TRIPOS>MOLECULE
000001_000007
   26    26     1     1     1
SMALL
USER_CHARGES


@<TRIPOS>ATOM
      1 C30        -7.8780   -2.2990   32.2090 C.2        1 <1>        0.060
      2 O32        -7.9100   -2.7650   31.0800 O.2        1 <1>        0.520
      3 N4         -8.9360   -2.3980   33.0750 N.am       1 <1>        0.540
      4 H          -9.7771   -2.8601   32.7940 H          1 <1>        0.000
      5 H          -8.8660   -2.0071   33.9928 H          1 <1>        0.000
      6 C1         -6.5930   -0.2080   32.0740 C.2        1 <1>        0.040
      7 O2         -7.4210    0.1190   31.2400 O.2        1 <1>        0.040
      8 O3         -5.6220    0.6130   32.3900 O.3        1 <1>        0.530
      9 C4         -6.6870   -1.5580   32.7430 C.3        1 <1>        0.050
     10 H5         -5.6990    1.4159   31.8881 H          1 <1>        0.000
     11 H8         -6.7960   -1.4230   33.8292 H          1 <1>        0.000
     12 N1         -5.4830   -2.3180   32.4690 N.pl3      1 <1>        0.350
     13 C1         -5.0010   -3.2050   33.2900 C.2        1 <1>        0.120
     14 C2         -3.8970   -3.7120   32.7350 C.2        1 <1>        0.100
     15 C3         -3.7520   -3.0190   31.4480 C.2        1 <1>        0.050
     16 C4         -4.7850   -2.1750   31.3800 C.2        1 <1>        0.090
     17 H2         -5.4160   -3.4890   34.2560 H          1 <1>        0.000
     18 H3         -3.2400   -4.4770   33.1460 H          1 <1>        0.000
     19 H5         -4.9990   -1.4949   30.5569 H          1 <1>        0.000
     20 N1         -1.4090   -2.5890   30.8820 N.4        1 <1>        1.190
     21 C1         -2.6690   -3.2200   30.4290 C.3        1 <1>        0.040
     22 H2         -1.0930   -2.9840   31.7539 H          1 <1>        0.000
     23 H3         -0.6711   -2.7160   30.2071 H          1 <1>        0.000
     24 H5         -2.9990   -2.7789   29.4769 H          1 <1>        0.000
     25 H7         -2.5261   -4.3006   30.2811 H          1 <1>        0.000
     26 H1         -1.5249   -1.5975   31.0219 H          1 <1>        0.000
@<TRIPOS>BOND
     1    2    1 2  
     2    1    3 am 
     3    4    3 1  
     4    3    5 1  
     5    6    7 2  
     6    6    8 1  
     7    6    9 1  
     8    8   10 1  
     9    9   11 1  
    10    1    9 1  
    11   12   13 1  
    12   12   16 1  
    13   13   14 2  
    14   14   15 1  
    15   15   16 2  
    16   13   17 1  
    17   14   18 1  
    18   16   19 1  
    19    9   12 1  
    20   20   21 1  
    21   20   22 1  
    22   20   23 1  
    23   21   24 1  
    24   21   25 1  
    25   20   26 1  
    26   15   21 1  
# Name:          No_6_4
# Creation time: Wed Mar 20 12:25:30 2024


@<TRIPOS>MOLECULE
000001_000008
   26    26     1     1     1
SMALL
USER_CHARGES


@<TRIPOS>ATOM
      1 C30        -7.8780   -2.2990   32.2090 C.2        1 <1>        0.060
      2 O32        -7.9100   -2.7650   31.0800 O.2        1 <1>        0.520
      3 N4         -8.9360   -2.3980   33.0750 N.am       1 <1>        0.540
      4 H          -9.7771   -2.8601   32.7940 H          1 <1>        0.000
      5 H          -8.8660   -2.0071   33.9928 H          1 <1>        0.000
      6 C1         -6.5930   -0.2080   32.0740 C.2        1 <1>        0.040
      7 O2         -7.4210    0.1190   31.2400 O.2        1 <1>        0.040
      8 O3         -5.6220    0.6130   32.3900 O.3        1 <1>        0.530
      9 C4         -6.6870   -1.5580   32.7430 C.3        1 <1>        0.050
     10 H5         -5.6990    1.4159   31.8881 H          1 <1>        0.000
     11 H8         -6.7960   -1.4230   33.8292 H          1 <1>        0.000
     12 N1         -5.4830   -2.3180   32.4690 N.pl3      1 <1>        0.350
     13 C1         -5.0010   -3.2050   33.2900 C.2        1 <1>        0.120
     14 C2         -3.8970   -3.7120   32.7350 C.2        1 <1>        0.100
     15 C3         -3.7520   -3.0190   31.4480 C.2        1 <1>        0.050
     16 C4         -4.7850   -2.1750   31.3800 C.2        1 <1>        0.090
     17 H2         -5.4160   -3.4890   34.2560 H          1 <1>        0.000
     18 H3         -3.2400   -4.4770   33.1460 H          1 <1>        0.000
     19 H5         -4.9990   -1.4949   30.5569 H          1 <1>        0.000
     20 N1         -1.4090   -2.5890   30.8820 N.4        1 <1>        1.190
     21 C1         -2.6690   -3.2200   30.4290 C.3        1 <1>        0.040
     22 H2         -1.0930   -2.9840   31.7539 H          1 <1>        0.000
     23 H3         -0.6711   -2.7160   30.2071 H          1 <1>        0.000
     24 H5         -2.9990   -2.7789   29.4769 H          1 <1>        0.000
     25 H7         -2.5261   -4.3006   30.2811 H          1 <1>        0.000
     26 H1         -1.5249   -1.5975   31.0219 H          1 <1>        0.000
@<TRIPOS>BOND
     1    2    1 2  
     2    1    3 am 
     3    4    3 1  
     4    3    5 1  
     5    6    7 2  
     6    6    8 1  
     7    6    9 1  
     8    8   10 1  
     9    9   11 1  
    10    1    9 1  
    11   12   13 1  
    12   12   16 1  
    13   13   14 2  
    14   14   15 1  
    15   15   16 2  
    16   13   17 1  
    17   14   18 1  
    18   16   19 1  
    19    9   12 1  
    20   20   21 1  
    21   20   22 1  
    22   20   23 1  
    23   21   24 1  
    24   21   25 1  
    25   20   26 1  
    26   15   21 1  
# Name:          No_3_54
# Creation time: Wed Mar 20 12:25:30 2024


@<TRIPOS>MOLECULE
000001_000009
   26    26     1     1     1
SMALL
USER_CHARGES


@<TRIPOS>ATOM
      1 C30        -7.8780   -2.2990   32.2090 C.2        1 <1>        0.060
      2 O32        -7.9100   -2.7650   31.0800 O.2        1 <1>        0.520
      3 N4         -8.9360   -2.3980   33.0750 N.am       1 <1>        0.540
      4 H          -9.7771   -2.8601   32.7940 H          1 <1>        0.000
      5 H          -8.8660   -2.0071   33.9928 H          1 <1>        0.000
      6 C1         -6.5930   -0.2080   32.0740 C.2        1 <1>        0.040
      7 O2         -7.4210    0.1190   31.2400 O.2        1 <1>        0.040
      8 O3         -5.6220    0.6130   32.3900 O.3        1 <1>        0.530
      9 C4         -6.6870   -1.5580   32.7430 C.3        1 <1>        0.050
     10 H5         -5.6990    1.4159   31.8881 H          1 <1>        0.000
     11 H8         -6.7960   -1.4230   33.8292 H          1 <1>        0.000
     12 N1         -5.4830   -2.3180   32.4690 N.pl3      1 <1>        0.350
     13 C1         -5.0010   -3.2050   33.2900 C.2        1 <1>        0.120
     14 C2         -3.8970   -3.7120   32.7350 C.2        1 <1>        0.100
     15 C3         -3.7520   -3.0190   31.4480 C.2        1 <1>        0.050
     16 C4         -4.7850   -2.1750   31.3800 C.2        1 <1>        0.090
     17 H2         -5.4160   -3.4890   34.2560 H          1 <1>        0.000
     18 H3         -3.2400   -4.4770   33.1460 H          1 <1>        0.000
     19 H5         -4.9990   -1.4949   30.5569 H          1 <1>        0.000
     20 N1         -1.4090   -2.5890   30.8820 N.4        1 <1>        1.190
     21 C1         -2.6690   -3.2200   30.4290 C.3        1 <1>        0.040
     22 H2         -1.0930   -2.9840   31.7539 H          1 <1>        0.000
     23 H3         -0.6711   -2.7160   30.2071 H          1 <1>        0.000
     24 H5         -2.9990   -2.7789   29.4769 H          1 <1>        0.000
     25 H7         -2.5261   -4.3006   30.2811 H          1 <1>        0.000
     26 H1         -1.5249   -1.5975   31.0219 H          1 <1>        0.000
@<TRIPOS>BOND
     1    2    1 2  
     2    1    3 am 
     3    4    3 1  
     4    3    5 1  
     5    6    7 2  
     6    6    8 1  
     7    6    9 1  
     8    8   10 1  
     9    9   11 1  
    10    1    9 1  
    11   12   13 1  
    12   12   16 1  
    13   13   14 2  
    14   14   15 1  
    15   15   16 2  
    16   13   17 1  
    17   14   18 1  
    18   16   19 1  
    19    9   12 1  
    20   20   21 1  
    21   20   22 1  
    22   20   23 1  
    23   21   24 1  
    24   21   25 1  
    25   20   26 1  
    26   15   21 1  
# Name:          No_7_3
# Creation time: Wed Mar 20 12:25:30 2024


@<TRIPOS>MOLECULE
000001_000010
   26    26     1     1     1
SMALL
USER_CHARGES


@<TRIPOS>ATOM
      1 C30        -7.8780   -2.2990   32.2090 C.2        1 <1>        0.060
      2 O32        -7.9100   -2.7650   31.0800 O.2        1 <1>        0.520
      3 N4         -8.9360   -2.3980   33.0750 N.am       1 <1>        0.540
      4 H          -9.7771   -2.8601   32.7940 H          1 <1>        0.000
      5 H          -8.8660   -2.0071   33.9928 H          1 <1>        0.000
      6 C1         -6.5930   -0.2080   32.0740 C.2        1 <1>        0.040
      7 O2         -7.4210    0.1190   31.2400 O.2        1 <1>        0.040
      8 O3         -5.6220    0.6130   32.3900 O.3        1 <1>        0.530
      9 C4         -6.6870   -1.5580   32.7430 C.3        1 <1>        0.050
     10 H5         -5.6990    1.4159   31.8881 H          1 <1>        0.000
     11 H8         -6.7960   -1.4230   33.8292 H          1 <1>        0.000
     12 N1         -5.4830   -2.3180   32.4690 N.pl3      1 <1>        0.350
     13 C1         -5.0010   -3.2050   33.2900 C.2        1 <1>        0.120
     14 C2         -3.8970   -3.7120   32.7350 C.2        1 <1>        0.100
     15 C3         -3.7520   -3.0190   31.4480 C.2        1 <1>        0.050
     16 C4         -4.7850   -2.1750   31.3800 C.2        1 <1>        0.090
     17 H2         -5.4160   -3.4890   34.2560 H          1 <1>        0.000
     18 H3         -3.2400   -4.4770   33.1460 H          1 <1>        0.000
     19 H5         -4.9990   -1.4949   30.5569 H          1 <1>        0.000
     20 N1         -1.4090   -2.5890   30.8820 N.4        1 <1>        1.190
     21 C1         -2.6690   -3.2200   30.4290 C.3        1 <1>        0.040
     22 H2         -1.0930   -2.9840   31.7539 H          1 <1>        0.000
     23 H3         -0.6711   -2.7160   30.2071 H          1 <1>        0.000
     24 H5         -2.9990   -2.7789   29.4769 H          1 <1>        0.000
     25 H7         -2.5261   -4.3006   30.2811 H          1 <1>        0.000
     26 H1         -1.5249   -1.5975   31.0219 H          1 <1>        0.000
@<TRIPOS>BOND
     1    2    1 2  
     2    1    3 am 
     3    4    3 1  
     4    3    5 1  
     5    6    7 2  
     6    6    8 1  
     7    6    9 1  
     8    8   10 1  
     9    9   11 1  
    10    1    9 1  
    11   12   13 1  
    12   12   16 1  
    13   13   14 2  
    14   14   15 1  
    15   15   16 2  
    16   13   17 1  
    17   14   18 1  
    18   16   19 1  
    19    9   12 1  
    20   20   21 1  
    21   20   22 1  
    22   20   23 1  
    23   21   24 1  
    24   21   25 1  
    25   20   26 1  
    26   15   21 1  

# Name:          No_7_68
# Creation time: Wed Mar 20 12:28:16 2024


@<TRIPOS>MOLECULE
000001_000001
   42    43     1     1     1
SMALL
USER_CHARGES


@<TRIPOS>ATOM
      1 C30        -7.8780   -2.2990   32.2090 C.2        1 <1>        0.060
      2 O32        -7.9100   -2.7650   31.0800 O.2        1 <1>        0.520
      3 N4         -8.9360   -2.3980   33.0750 N.am       1 <1>        0.500
      4 H          -8.8660   -2.0071   33.9928 H          1 <1>        0.000
      5 C1         -6.7920   -0.0990   32.3690 C.2        1 <1>        0.050
      6 O2         -7.7500    0.2980   31.7260 O.2        1 <1>        0.060
      7 O3         -5.8550    0.7400   32.7340 O.3        1 <1>        0.510
      8 C4         -6.6870   -1.5580   32.7430 C.3        1 <1>        0.050
      9 H5         -6.0630    1.6139   32.4250 H          1 <1>        0.000
     10 H8         -6.6560   -1.6550   33.8383 H          1 <1>        0.000
     11 O1         -5.2390   -2.2020   30.8210 O.3        1 <1>        0.670
     12 C1         -4.0260   -2.7700   30.6850 C.2        1 <1>        0.060
     13 N1         -3.5740   -3.0050   31.8430 N.2        1 <1>        0.080
     14 C2         -4.4450   -2.6170   32.9110 C.2        1 <1>        0.010
     15 C3         -5.4330   -2.1370   32.1540 C.2        1 <1>        0.050
     16 H2         -4.3310   -2.6920   33.9914 H          1 <1>        0.000
     17 C         -11.2520   -2.0590   32.4530 C.2        1 <1>       -0.010
     18 O         -11.4230   -1.1560   33.2570 O.2        1 <1>        0.490
     19 C3        -10.1560   -3.0670   32.6670 C.3        1 <1>        0.020
     20 H2        -10.4568   -3.7746   33.4536 H          1 <1>        0.000
     21 H3         -9.9601   -3.6267   31.7405 H          1 <1>        0.000
     22 C1         -3.3320   -3.0710   29.3890 C.3        1 <1>        0.000
     23 C2         -2.3780   -4.2450   29.5830 C.ar       1 <1>        0.040
     24 C3         -1.0100   -4.0800   29.3470 C.ar       1 <1>        0.060
     25 C4         -0.1350   -5.1570   29.5250 C.ar       1 <1>        0.160
     26 C5         -0.6290   -6.3970   29.9400 C.ar       1 <1>        0.160
     27 C6         -1.9970   -6.5620   30.1760 C.ar       1 <1>        0.170
     28 C7         -2.8720   -5.4850   29.9980 C.ar       1 <1>        0.180
     29 H1         -2.7634   -2.1875   29.0632 H          1 <1>        0.000
     30 H3         -4.0792   -3.3281   28.6238 H          1 <1>        0.000
     31 H4         -0.6267   -3.1183   29.0258 H          1 <1>        0.000
     32 H5          0.9258   -5.0299   29.3419 H          1 <1>        0.000
     33 H6          0.0487   -7.2317   30.0779 H          1 <1>        0.000
     34 H7         -2.3799   -7.5237   30.4979 H          1 <1>        0.000
     35 H8         -3.9328   -5.6130   30.1810 H          1 <1>        0.000
     36 N1        -12.5470   -3.5640   31.0190 N.4        1 <1>        0.540
     37 C1        -12.1670   -2.1550   31.2670 C.3        1 <1>        0.020
     38 H2        -13.0241   -3.9611   31.8132 H          1 <1>        0.000
     39 H3        -13.1612   -3.6440   30.2237 H          1 <1>        0.000
     40 H5        -11.6479   -1.7369   30.3919 H          1 <1>        0.000
     41 H7        -13.0607   -1.5452   31.4659 H          1 <1>        0.000
     42 H1        -11.7370   -4.1350   30.8350 H          1 <1>        0.000
@<TRIPOS>BOND
     1    2    1 2  
     2    1    3 am 
     3    3    4 1  
     4    5    6 2  
     5    5    7 1  
     6    5    8 1  
     7    7    9 1  
     8    8   10 1  
     9    1    8 1  
    10   11   12 1  
    11   11   15 1  
    12   12   13 2  
    13   13   14 1  
    14   14   15 2  
    15   14   16 1  
    16    8   15 1  
    17   17   18 2  
    18   17   19 1  
    19   19   20 1  
    20   19   21 1  
    21    3   19 1  
    22   22   23 1  
    23   23   24 ar 
    24   23   28 ar 
    25   28   27 ar 
    26   27   26 ar 
    27   26   25 ar 
    28   25   24 ar 
    29   22   29 1  
    30   22   30 1  
    31   24   31 1  
    32   25   32 1  
    33   26   33 1  
    34   27   34 1  
    35   28   35 1  
    36   12   22 1  
    37   36   37 1  
    38   36   38 1  
    39   36   39 1  
    40   37   40 1  
    41   37   41 1  
    42   36   42 1  
    43   17   37 1  
# Name:          No_7_69
# Creation time: Wed Mar 20 12:28:16 2024


@<TRIPOS>MOLECULE
000001_000002
   42    43     1     1     1
SMALL
USER_CHARGES


@<TRIPOS>ATOM
      1 C30        -7.8780   -2.2990   32.2090 C.2        1 <1>        0.060
      2 O32        -7.9100   -2.7650   31.0800 O.2        1 <1>        0.520
      3 N4         -8.9360   -2.3980   33.0750 N.am       1 <1>        0.500
      4 H          -8.8660   -2.0071   33.9928 H          1 <1>        0.000
      5 C1         -6.7920   -0.0990   32.3690 C.2        1 <1>        0.050
      6 O2         -7.7500    0.2980   31.7260 O.2        1 <1>        0.060
      7 O3         -5.8550    0.7400   32.7340 O.3        1 <1>        0.510
      8 C4         -6.6870   -1.5580   32.7430 C.3        1 <1>        0.050
      9 H5         -6.0630    1.6139   32.4250 H          1 <1>        0.000
     10 H8         -6.6560   -1.6550   33.8383 H          1 <1>        0.000
     11 O1         -5.2390   -2.2020   30.8210 O.3        1 <1>        0.670
     12 C1         -4.0260   -2.7700   30.6850 C.2        1 <1>        0.060
     13 N1         -3.5740   -3.0050   31.8430 N.2        1 <1>        0.080
     14 C2         -4.4450   -2.6170   32.9110 C.2        1 <1>        0.010
     15 C3         -5.4330   -2.1370   32.1540 C.2        1 <1>        0.050
     16 H2         -4.3310   -2.6920   33.9914 H          1 <1>        0.000
     17 C         -11.2520   -2.0590   32.4530 C.2        1 <1>       -0.010
     18 O         -11.4230   -1.1560   33.2570 O.2        1 <1>        0.490
     19 C3        -10.1560   -3.0670   32.6670 C.3        1 <1>        0.020
     20 H2        -10.4568   -3.7746   33.4536 H          1 <1>        0.000
     21 H3         -9.9601   -3.6267   31.7405 H          1 <1>        0.000
     22 C1         -3.3320   -3.0710   29.3890 C.3        1 <1>        0.000
     23 C2         -2.3780   -4.2450   29.5830 C.ar       1 <1>        0.040
     24 C3         -1.0100   -4.0800   29.3470 C.ar       1 <1>        0.060
     25 C4         -0.1350   -5.1570   29.5250 C.ar       1 <1>        0.160
     26 C5         -0.6290   -6.3970   29.9400 C.ar       1 <1>        0.160
     27 C6         -1.9970   -6.5620   30.1760 C.ar       1 <1>        0.170
     28 C7         -2.8720   -5.4850   29.9980 C.ar       1 <1>        0.180
     29 H1         -2.7634   -2.1875   29.0632 H          1 <1>        0.000
     30 H3         -4.0792   -3.3281   28.6238 H          1 <1>        0.000
     31 H4         -0.6267   -3.1183   29.0258 H          1 <1>        0.000
     32 H5          0.9258   -5.0299   29.3419 H          1 <1>        0.000
     33 H6          0.0487   -7.2317   30.0779 H          1 <1>        0.000
     34 H7         -2.3799   -7.5237   30.4979 H          1 <1>        0.000
     35 H8         -3.9328   -5.6130   30.1810 H          1 <1>        0.000
     36 N1        -12.8830   -3.4500   31.2690 N.4        1 <1>        0.530
     37 C1        -12.1670   -2.1550   31.2670 C.3        1 <1>        0.020
     38 H2        -13.4399   -3.5610   32.1018 H          1 <1>        0.000
     39 H3        -13.5011   -3.5300   30.4768 H          1 <1>        0.000
     40 H5        -11.5647   -2.0499   30.3526 H          1 <1>        0.000
     41 H7        -12.8830   -1.3210   31.3100 H          1 <1>        0.000
     42 H1        -12.2393   -4.2247   31.2300 H          1 <1>        0.000
@<TRIPOS>BOND
     1    2    1 2  
     2    1    3 am 
     3    3    4 1  
     4    5    6 2  
     5    5    7 1  
     6    5    8 1  
     7    7    9 1  
     8    8   10 1  
     9    1    8 1  
    10   11   12 1  
    11   11   15 1  
    12   12   13 2  
    13   13   14 1  
    14   14   15 2  
    15   14   16 1  
    16    8   15 1  
    17   17   18 2  
    18   17   19 1  
    19   19   20 1  
    20   19   21 1  
    21    3   19 1  
    22   22   23 1  
    23   23   24 ar 
    24   23   28 ar 
    25   28   27 ar 
    26   27   26 ar 
    27   26   25 ar 
    28   25   24 ar 
    29   22   29 1  
    30   22   30 1  
    31   24   31 1  
    32   25   32 1  
    33   26   33 1  
    34   27   34 1  
    35   28   35 1  
    36   12   22 1  
    37   36   37 1  
    38   36   38 1  
    39   36   39 1  
    40   37   40 1  
    41   37   41 1  
    42   36   42 1  
    43   17   37 1  
# Name:          No_7_70
# Creation time: Wed Mar 20 12:28:16 2024


@<TRIPOS>MOLECULE
000001_000003
   42    43     1     1     1
SMALL
USER_CHARGES


@<TRIPOS>ATOM
      1 C30        -7.8780   -2.2990   32.2090 C.2        1 <1>        0.060
      2 O32        -7.9100   -2.7650   31.0800 O.2        1 <1>        0.520
      3 N4         -8.9360   -2.3980   33.0750 N.am       1 <1>        0.500
      4 H          -8.8660   -2.0071   33.9928 H          1 <1>        0.000
      5 C1         -6.7920   -0.0990   32.3690 C.2        1 <1>        0.050
      6 O2         -7.7500    0.2980   31.7260 O.2        1 <1>        0.060
      7 O3         -5.8550    0.7400   32.7340 O.3        1 <1>        0.510
      8 C4         -6.6870   -1.5580   32.7430 C.3        1 <1>        0.050
      9 H5         -6.0630    1.6139   32.4250 H          1 <1>        0.000
     10 H8         -6.6560   -1.6550   33.8383 H          1 <1>        0.000
     11 O1         -5.2390   -2.2020   30.8210 O.3        1 <1>        0.670
     12 C1         -4.0260   -2.7700   30.6850 C.2        1 <1>        0.060
     13 N1         -3.5740   -3.0050   31.8430 N.2        1 <1>        0.080
     14 C2         -4.4450   -2.6170   32.9110 C.2        1 <1>        0.010
     15 C3         -5.4330   -2.1370   32.1540 C.2        1 <1>        0.050
     16 H2         -4.3310   -2.6920   33.9914 H          1 <1>        0.000
     17 C         -11.2520   -2.0590   32.4530 C.2        1 <1>       -0.010
     18 O         -11.4230   -1.1560   33.2570 O.2        1 <1>        0.490
     19 C3        -10.1560   -3.0670   32.6670 C.3        1 <1>        0.020
     20 H2        -10.4568   -3.7746   33.4536 H          1 <1>        0.000
     21 H3         -9.9601   -3.6267   31.7405 H          1 <1>        0.000
     22 C1         -3.3320   -3.0710   29.3890 C.3        1 <1>        0.000
     23 C2         -2.3780   -4.2450   29.5830 C.ar       1 <1>        0.040
     24 C3         -1.0100   -4.0800   29.3470 C.ar       1 <1>        0.060
     25 C4         -0.1350   -5.1570   29.5250 C.ar       1 <1>        0.160
     26 C5         -0.6290   -6.3970   29.9400 C.ar       1 <1>        0.160
     27 C6         -1.9970   -6.5620   30.1760 C.ar       1 <1>        0.170
     28 C7         -2.8720   -5.4850   29.9980 C.ar       1 <1>        0.180
     29 H1         -2.7634   -2.1875   29.0632 H          1 <1>        0.000
     30 H3         -4.0792   -3.3281   28.6238 H          1 <1>        0.000
     31 H4         -0.6267   -3.1183   29.0258 H          1 <1>        0.000
     32 H5          0.9258   -5.0299   29.3419 H          1 <1>        0.000
     33 H6          0.0487   -7.2317   30.0779 H          1 <1>        0.000
     34 H7         -2.3799   -7.5237   30.4979 H          1 <1>        0.000
     35 H8         -3.9328   -5.6130   30.1810 H          1 <1>        0.000
     36 N1        -13.1340   -3.2610   31.4470 N.4        1 <1>        0.500
     37 C1        -12.1670   -2.1550   31.2670 C.3        1 <1>        0.020
     38 H2        -13.7019   -3.1210   32.2679 H          1 <1>        0.000
     39 H3        -13.7562   -3.3380   30.6577 H          1 <1>        0.000
     40 H5        -11.5559   -2.3220   30.3678 H          1 <1>        0.000
     41 H7        -12.6960   -1.1970   31.1560 H          1 <1>        0.000
     42 H1        -12.6637   -4.1465   31.5511 H          1 <1>        0.000
@<TRIPOS>BOND
     1    2    1 2  
     2    1    3 am 
     3    3    4 1  
     4    5    6 2  
     5    5    7 1  
     6    5    8 1  
     7    7    9 1  
     8    8   10 1  
     9    1    8 1  
    10   11   12 1  
    11   11   15 1  
    12   12   13 2  
    13   13   14 1  
    14   14   15 2  
    15   14   16 1  
    16    8   15 1  
    17   17   18 2  
    18   17   19 1  
    19   19   20 1  
    20   19   21 1  
    21    3   19 1  
    22   22   23 1  
    23   23   24 ar 
    24   23   28 ar 
    25   28   27 ar 
    26   27   26 ar 
    27   26   25 ar 
    28   25   24 ar 
    29   22   29 1  
    30   22   30 1  
    31   24   31 1  
    32   25   32 1  
    33   26   33 1  
    34   27   34 1  
    35   28   35 1  
    36   12   22 1  
    37   36   37 1  
    38   36   38 1  
    39   36   39 1  
    40   37   40 1  
    41   37   41 1  
    42   36   42 1  
    43   17   37 1  
# Name:          No_7_67
# Creation time: Wed Mar 20 12:28:16 2024


@<TRIPOS>MOLECULE
000001_000004
   42    43     1     1     1
SMALL
USER_CHARGES


@<TRIPOS>ATOM
      1 C30        -7.8780   -2.2990   32.2090 C.2        1 <1>        0.060
      2 O32        -7.9100   -2.7650   31.0800 O.2        1 <1>        0.520
      3 N4         -8.9360   -2.3980   33.0750 N.am       1 <1>        0.500
      4 H          -8.8660   -2.0071   33.9928 H          1 <1>        0.000
      5 C1         -6.7920   -0.0990   32.3690 C.2        1 <1>        0.050
      6 O2         -7.7500    0.2980   31.7260 O.2        1 <1>        0.060
      7 O3         -5.8550    0.7400   32.7340 O.3        1 <1>        0.510
      8 C4         -6.6870   -1.5580   32.7430 C.3        1 <1>        0.050
      9 H5         -6.0630    1.6139   32.4250 H          1 <1>        0.000
     10 H8         -6.6560   -1.6550   33.8383 H          1 <1>        0.000
     11 O1         -5.2390   -2.2020   30.8210 O.3        1 <1>        0.670
     12 C1         -4.0260   -2.7700   30.6850 C.2        1 <1>        0.060
     13 N1         -3.5740   -3.0050   31.8430 N.2        1 <1>        0.080
     14 C2         -4.4450   -2.6170   32.9110 C.2        1 <1>        0.010
     15 C3         -5.4330   -2.1370   32.1540 C.2        1 <1>        0.050
     16 H2         -4.3310   -2.6920   33.9914 H          1 <1>        0.000
     17 C         -11.2520   -2.0590   32.4530 C.2        1 <1>       -0.010
     18 O         -11.4230   -1.1560   33.2570 O.2        1 <1>        0.490
     19 C3        -10.1560   -3.0670   32.6670 C.3        1 <1>        0.020
     20 H2        -10.4568   -3.7746   33.4536 H          1 <1>        0.000
     21 H3         -9.9601   -3.6267   31.7405 H          1 <1>        0.000
     22 C1         -3.3320   -3.0710   29.3890 C.3        1 <1>        0.000
     23 C2         -2.3780   -4.2450   29.5830 C.ar       1 <1>        0.040
     24 C3         -1.0100   -4.0800   29.3470 C.ar       1 <1>        0.060
     25 C4         -0.1350   -5.1570   29.5250 C.ar       1 <1>        0.160
     26 C5         -0.6290   -6.3970   29.9400 C.ar       1 <1>        0.160
     27 C6         -1.9970   -6.5620   30.1760 C.ar       1 <1>        0.170
     28 C7         -2.8720   -5.4850   29.9980 C.ar       1 <1>        0.180
     29 H1         -2.7634   -2.1875   29.0632 H          1 <1>        0.000
     30 H3         -4.0792   -3.3281   28.6238 H          1 <1>        0.000
     31 H4         -0.6267   -3.1183   29.0258 H          1 <1>        0.000
     32 H5          0.9258   -5.0299   29.3419 H          1 <1>        0.000
     33 H6          0.0487   -7.2317   30.0779 H          1 <1>        0.000
     34 H7         -2.3799   -7.5237   30.4979 H          1 <1>        0.000
     35 H8         -3.9328   -5.6130   30.1810 H          1 <1>        0.000
     36 N1        -11.3900   -2.4080   30.0330 N.4        1 <1>        0.520
     37 C1        -12.1670   -2.1550   31.2670 C.3        1 <1>        0.020
     38 H2        -10.8711   -3.2698   30.0970 H          1 <1>        0.000
     39 H3        -11.9919   -2.4750   29.2272 H          1 <1>        0.000
     40 H5        -12.7269   -1.2121   31.1810 H          1 <1>        0.000
     41 H7        -12.8836   -2.9706   31.4439 H          1 <1>        0.000
     42 H1        -10.7283   -1.6683   29.8568 H          1 <1>        0.000
@<TRIPOS>BOND
     1    2    1 2  
     2    1    3 am 
     3    3    4 1  
     4    5    6 2  
     5    5    7 1  
     6    5    8 1  
     7    7    9 1  
     8    8   10 1  
     9    1    8 1  
    10   11   12 1  
    11   11   15 1  
    12   12   13 2  
    13   13   14 1  
    14   14   15 2  
    15   14   16 1  
    16    8   15 1  
    17   17   18 2  
    18   17   19 1  
    19   19   20 1  
    20   19   21 1  
    21    3   19 1  
    22   22   23 1  
    23   23   24 ar 
    24   23   28 ar 
    25   28   27 ar 
    26   27   26 ar 
    27   26   25 ar 
    28   25   24 ar 
    29   22   29 1  
    30   22   30 1  
    31   24   31 1  
    32   25   32 1  
    33   26   33 1  
    34   27   34 1  
    35   28   35 1  
    36   12   22 1  
    37   36   37 1  
    38   36   38 1  
    39   36   39 1  
    40   37   40 1  
    41   37   41 1  
    42   36   42 1  
    43   17   37 1  
# Name:          No_7_64
# Creation time: Wed Mar 20 12:28:16 2024


@<TRIPOS>MOLECULE
000001_000005
   42    43     1     1     1
SMALL
USER_CHARGES


@<TRIPOS>ATOM
      1 C30        -7.8780   -2.2990   32.2090 C.2        1 <1>        0.060
      2 O32        -7.9100   -2.7650   31.0800 O.2        1 <1>        0.520
      3 N4         -8.9360   -2.3980   33.0750 N.am       1 <1>        0.500
      4 H          -8.8660   -2.0071   33.9928 H          1 <1>        0.000
      5 C1         -6.7920   -0.0990   32.3690 C.2        1 <1>        0.050
      6 O2         -7.7500    0.2980   31.7260 O.2        1 <1>        0.060
      7 O3         -5.8550    0.7400   32.7340 O.3        1 <1>        0.510
      8 C4         -6.6870   -1.5580   32.7430 C.3        1 <1>        0.050
      9 H5         -6.0630    1.6139   32.4250 H          1 <1>        0.000
     10 H8         -6.6560   -1.6550   33.8383 H          1 <1>        0.000
     11 O1         -5.2390   -2.2020   30.8210 O.3        1 <1>        0.670
     12 C1         -4.0260   -2.7700   30.6850 C.2        1 <1>        0.060
     13 N1         -3.5740   -3.0050   31.8430 N.2        1 <1>        0.080
     14 C2         -4.4450   -2.6170   32.9110 C.2        1 <1>        0.010
     15 C3         -5.4330   -2.1370   32.1540 C.2        1 <1>        0.050
     16 H2         -4.3310   -2.6920   33.9914 H          1 <1>        0.000
     17 C         -11.2520   -2.0590   32.4530 C.2        1 <1>       -0.010
     18 O         -11.4230   -1.1560   33.2570 O.2        1 <1>        0.490
     19 C3        -10.1560   -3.0670   32.6670 C.3        1 <1>        0.020
     20 H2        -10.4568   -3.7746   33.4536 H          1 <1>        0.000
     21 H3         -9.9601   -3.6267   31.7405 H          1 <1>        0.000
     22 C1         -3.3320   -3.0710   29.3890 C.3        1 <1>        0.000
     23 C2         -2.3780   -4.2450   29.5830 C.ar       1 <1>        0.040
     24 C3         -1.0100   -4.0800   29.3470 C.ar       1 <1>        0.060
     25 C4         -0.1350   -5.1570   29.5250 C.ar       1 <1>        0.160
     26 C5         -0.6290   -6.3970   29.9400 C.ar       1 <1>        0.160
     27 C6         -1.9970   -6.5620   30.1760 C.ar       1 <1>        0.170
     28 C7         -2.8720   -5.4850   29.9980 C.ar       1 <1>        0.180
     29 H1         -2.7634   -2.1875   29.0632 H          1 <1>        0.000
     30 H3         -4.0792   -3.3281   28.6238 H          1 <1>        0.000
     31 H4         -0.6267   -3.1183   29.0258 H          1 <1>        0.000
     32 H5          0.9258   -5.0299   29.3419 H          1 <1>        0.000
     33 H6          0.0487   -7.2317   30.0779 H          1 <1>        0.000
     34 H7         -2.3799   -7.5237   30.4979 H          1 <1>        0.000
     35 H8         -3.9328   -5.6130   30.1810 H          1 <1>        0.000
     36 N1        -12.9760   -0.9220   31.1360 N.4        1 <1>        0.490
     37 C1        -12.1670   -2.1550   31.2670 C.3        1 <1>        0.020
     38 H2        -12.3907   -0.1106   31.0129 H          1 <1>        0.000
     39 H3        -13.5961   -0.9720   30.3429 H          1 <1>        0.000
     40 H5        -12.8201   -3.0301   31.4000 H          1 <1>        0.000
     41 H7        -11.5551   -2.3100   30.3661 H          1 <1>        0.000
     42 H1        -13.5422   -0.7660   31.9552 H          1 <1>        0.000
@<TRIPOS>BOND
     1    2    1 2  
     2    1    3 am 
     3    3    4 1  
     4    5    6 2  
     5    5    7 1  
     6    5    8 1  
     7    7    9 1  
     8    8   10 1  
     9    1    8 1  
    10   11   12 1  
    11   11   15 1  
    12   12   13 2  
    13   13   14 1  
    14   14   15 2  
    15   14   16 1  
    16    8   15 1  
    17   17   18 2  
    18   17   19 1  
    19   19   20 1  
    20   19   21 1  
    21    3   19 1  
    22   22   23 1  
    23   23   24 ar 
    24   23   28 ar 
    25   28   27 ar 
    26   27   26 ar 
    27   26   25 ar 
    28   25   24 ar 
    29   22   29 1  
    30   22   30 1  
    31   24   31 1  
    32   25   32 1  
    33   26   33 1  
    34   27   34 1  
    35   28   35 1  
    36   12   22 1  
    37   36   37 1  
    38   36   38 1  
    39   36   39 1  
    40   37   40 1  
    41   37   41 1  
    42   36   42 1  
    43   17   37 1  
# Name:          No_7_71
# Creation time: Wed Mar 20 12:28:16 2024


@<TRIPOS>MOLECULE
000001_000006
   42    43     1     1     1
SMALL
USER_CHARGES


@<TRIPOS>ATOM
      1 C30        -7.8780   -2.2990   32.2090 C.2        1 <1>        0.060
      2 O32        -7.9100   -2.7650   31.0800 O.2        1 <1>        0.520
      3 N4         -8.9360   -2.3980   33.0750 N.am       1 <1>        0.500
      4 H          -8.8660   -2.0071   33.9928 H          1 <1>        0.000
      5 C1         -6.7920   -0.0990   32.3690 C.2        1 <1>        0.050
      6 O2         -7.7500    0.2980   31.7260 O.2        1 <1>        0.060
      7 O3         -5.8550    0.7400   32.7340 O.3        1 <1>        0.510
      8 C4         -6.6870   -1.5580   32.7430 C.3        1 <1>        0.050
      9 H5         -6.0630    1.6139   32.4250 H          1 <1>        0.000
     10 H8         -6.6560   -1.6550   33.8383 H          1 <1>        0.000
     11 O1         -5.2390   -2.2020   30.8210 O.3        1 <1>        0.670
     12 C1         -4.0260   -2.7700   30.6850 C.2        1 <1>        0.060
     13 N1         -3.5740   -3.0050   31.8430 N.2        1 <1>        0.080
     14 C2         -4.4450   -2.6170   32.9110 C.2        1 <1>        0.010
     15 C3         -5.4330   -2.1370   32.1540 C.2        1 <1>        0.050
     16 H2         -4.3310   -2.6920   33.9914 H          1 <1>        0.000
     17 C         -11.2520   -2.0590   32.4530 C.2        1 <1>       -0.010
     18 O         -11.4230   -1.1560   33.2570 O.2        1 <1>        0.490
     19 C3        -10.1560   -3.0670   32.6670 C.3        1 <1>        0.020
     20 H2        -10.4568   -3.7746   33.4536 H          1 <1>        0.000
     21 H3         -9.9601   -3.6267   31.7405 H          1 <1>        0.000
     22 C1         -3.3320   -3.0710   29.3890 C.3        1 <1>        0.000
     23 C2         -2.3780   -4.2450   29.5830 C.ar       1 <1>        0.040
     24 C3         -1.0100   -4.0800   29.3470 C.ar       1 <1>        0.060
     25 C4         -0.1350   -5.1570   29.5250 C.ar       1 <1>        0.160
     26 C5         -0.6290   -6.3970   29.9400 C.ar       1 <1>        0.160
     27 C6         -1.9970   -6.5620   30.1760 C.ar       1 <1>        0.170
     28 C7         -2.8720   -5.4850   29.9980 C.ar       1 <1>        0.180
     29 H1         -2.7634   -2.1875   29.0632 H          1 <1>        0.000
     30 H3         -4.0792   -3.3281   28.6238 H          1 <1>        0.000
     31 H4         -0.6267   -3.1183   29.0258 H          1 <1>        0.000
     32 H5          0.9258   -5.0299   29.3419 H          1 <1>        0.000
     33 H6          0.0487   -7.2317   30.0779 H          1 <1>        0.000
     34 H7         -2.3799   -7.5237   30.4979 H          1 <1>        0.000
     35 H8         -3.9328   -5.6130   30.1810 H          1 <1>        0.000
     36 N1        -13.2130   -1.1100   31.3340 N.4        1 <1>        0.500
     37 C1        -12.1670   -2.1550   31.2670 C.3        1 <1>        0.020
     38 H2        -12.8100   -0.1861   31.3420 H          1 <1>        0.000
     39 H3        -13.8363   -1.1620   30.5436 H          1 <1>        0.000
     40 H5        -12.6238   -3.1556   31.2590 H          1 <1>        0.000
     41 H7        -11.5660   -2.0390   30.3530 H          1 <1>        0.000
     42 H1        -13.7725   -1.2039   32.1672 H          1 <1>        0.000
@<TRIPOS>BOND
     1    2    1 2  
     2    1    3 am 
     3    3    4 1  
     4    5    6 2  
     5    5    7 1  
     6    5    8 1  
     7    7    9 1  
     8    8   10 1  
     9    1    8 1  
    10   11   12 1  
    11   11   15 1  
    12   12   13 2  
    13   13   14 1  
    14   14   15 2  
    15   14   16 1  
    16    8   15 1  
    17   17   18 2  
    18   17   19 1  
    19   19   20 1  
    20   19   21 1  
    21    3   19 1  
    22   22   23 1  
    23   23   24 ar 
    24   23   28 ar 
    25   28   27 ar 
    26   27   26 ar 
    27   26   25 ar 
    28   25   24 ar 
    29   22   29 1  
    30   22   30 1  
    31   24   31 1  
    32   25   32 1  
    33   26   33 1  
    34   27   34 1  
    35   28   35 1  
    36   12   22 1  
    37   36   37 1  
    38   36   38 1  
    39   36   39 1  
    40   37   40 1  
    41   37   41 1  
    42   36   42 1  
    43   17   37 1  
# Name:          No_3_96
# Creation time: Wed Mar 20 12:28:16 2024


@<TRIPOS>MOLECULE
000001_000007
   31    32     1     1     1
SMALL
USER_CHARGES


@<TRIPOS>ATOM
      1 C30        -7.8780   -2.2990   32.2090 C.2        1 <1>        0.060
      2 O32        -7.9100   -2.7650   31.0800 O.2        1 <1>        0.520
      3 N4         -8.9360   -2.3980   33.0750 N.am       1 <1>        0.540
      4 H          -9.7771   -2.8601   32.7940 H          1 <1>        0.000
      5 H          -8.8660   -2.0071   33.9928 H          1 <1>        0.000
      6 C1         -6.7920   -0.0990   32.3690 C.2        1 <1>        0.050
      7 O2         -7.7500    0.2980   31.7260 O.2        1 <1>        0.060
      8 O3         -5.8550    0.7400   32.7340 O.3        1 <1>        0.510
      9 C4         -6.6870   -1.5580   32.7430 C.3        1 <1>        0.050
     10 H5         -6.0630    1.6139   32.4250 H          1 <1>        0.000
     11 H8         -6.6560   -1.6550   33.8383 H          1 <1>        0.000
     12 O1         -5.2390   -2.2020   30.8210 O.3        1 <1>        0.670
     13 C1         -4.0260   -2.7700   30.6850 C.2        1 <1>        0.060
     14 N1         -3.5740   -3.0050   31.8430 N.2        1 <1>        0.080
     15 C2         -4.4450   -2.6170   32.9110 C.2        1 <1>        0.010
     16 C3         -5.4330   -2.1370   32.1540 C.2        1 <1>        0.050
     17 H2         -4.3310   -2.6920   33.9914 H          1 <1>        0.000
     18 C1         -3.3320   -3.0710   29.3890 C.3        1 <1>        0.000
     19 C2         -2.1300   -3.9720   29.6530 C.ar       1 <1>        0.030
     20 C3         -0.8450   -3.5410   29.3100 C.ar       1 <1>        0.180
     21 C4          0.2570   -4.3670   29.5520 C.ar       1 <1>        0.170
     22 C5          0.0740   -5.6240   30.1370 C.ar       1 <1>        0.160
     23 C6         -1.2120   -6.0550   30.4790 C.ar       1 <1>        0.160
     24 C7         -2.3130   -5.2290   30.2370 C.ar       1 <1>        0.180
     25 H1         -2.9922   -2.1317   28.9283 H          1 <1>        0.000
     26 H3         -4.0301   -3.5811   28.7089 H          1 <1>        0.000
     27 H4         -0.7020   -2.5667   28.8569 H          1 <1>        0.000
     28 H5          1.2537   -4.0331   29.2871 H          1 <1>        0.000
     29 H6          0.9284   -6.2643   30.3241 H          1 <1>        0.000
     30 H7         -1.3541   -7.0294   30.9322 H          1 <1>        0.000
     31 H8         -3.3097   -5.5619   30.5029 H          1 <1>        0.000
@<TRIPOS>BOND
     1    2    1 2  
     2    1    3 am 
     3    4    3 1  
     4    3    5 1  
     5    6    7 2  
     6    6    8 1  
     7    6    9 1  
     8    8   10 1  
     9    9   11 1  
    10    1    9 1  
    11   12   13 1  
    12   12   16 1  
    13   13   14 2  
    14   14   15 1  
    15   15   16 2  
    16   15   17 1  
    17    9   16 1  
    18   18   19 1  
    19   19   20 ar 
    20   19   24 ar 
    21   24   23 ar 
    22   23   22 ar 
    23   22   21 ar 
    24   21   20 ar 
    25   18   25 1  
    26   18   26 1  
    27   20   27 1  
    28   21   28 1  
    29   22   29 1  
    30   23   30 1  
    31   24   31 1  
    32   13   18 1  
# Name:          No_7_143
# Creation time: Wed Mar 20 12:28:16 2024


@<TRIPOS>MOLECULE
000001_000008
   37    38     1     1     1
SMALL
USER_CHARGES


@<TRIPOS>ATOM
      1 C30        -7.8780   -2.2990   32.2090 C.2        1 <1>        0.060
      2 O32        -7.9100   -2.7650   31.0800 O.2        1 <1>        0.520
      3 N4         -8.9360   -2.3980   33.0750 N.am       1 <1>        0.500
      4 H          -8.8660   -2.0071   33.9928 H          1 <1>        0.000
      5 C1         -6.7920   -0.0990   32.3690 C.2        1 <1>        0.050
      6 O2         -7.7500    0.2980   31.7260 O.2        1 <1>        0.060
      7 O3         -5.8550    0.7400   32.7340 O.3        1 <1>        0.510
      8 C4         -6.6870   -1.5580   32.7430 C.3        1 <1>        0.050
      9 H5         -6.0630    1.6139   32.4250 H          1 <1>        0.000
     10 H8         -6.6560   -1.6550   33.8383 H          1 <1>        0.000
     11 O1         -5.2390   -2.2020   30.8210 O.3        1 <1>        0.670
     12 C1         -4.0260   -2.7700   30.6850 C.2        1 <1>        0.060
     13 N1         -3.5740   -3.0050   31.8430 N.2        1 <1>        0.080
     14 C2         -4.4450   -2.6170   32.9110 C.2        1 <1>        0.010
     15 C3         -5.4330   -2.1370   32.1540 C.2        1 <1>        0.050
     16 H2         -4.3310   -2.6920   33.9914 H          1 <1>        0.000
     17 C         -11.2520   -2.0590   32.4530 C.2        1 <1>        0.030
     18 O         -11.4230   -1.1560   33.2570 O.2        1 <1>        0.490
     19 C3        -10.1560   -3.0670   32.6670 C.3        1 <1>        0.020
     20 H2        -10.4568   -3.7746   33.4536 H          1 <1>        0.000
     21 H3         -9.9601   -3.6267   31.7405 H          1 <1>        0.000
     22 C1         -3.3320   -3.0710   29.3890 C.3        1 <1>        0.000
     23 C2         -2.3780   -4.2450   29.5830 C.ar       1 <1>        0.040
     24 C3         -1.0100   -4.0800   29.3470 C.ar       1 <1>        0.060
     25 C4         -0.1350   -5.1570   29.5250 C.ar       1 <1>        0.160
     26 C5         -0.6290   -6.3970   29.9400 C.ar       1 <1>        0.160
     27 C6         -1.9970   -6.5620   30.1760 C.ar       1 <1>        0.170
     28 C7         -2.8720   -5.4850   29.9980 C.ar       1 <1>        0.180
     29 H1         -2.7634   -2.1875   29.0632 H          1 <1>        0.000
     30 H3         -4.0792   -3.3281   28.6238 H          1 <1>        0.000
     31 H4         -0.6267   -3.1183   29.0258 H          1 <1>        0.000
     32 H5          0.9258   -5.0299   29.3419 H          1 <1>        0.000
     33 H6          0.0487   -7.2317   30.0779 H          1 <1>        0.000
     34 H7         -2.3799   -7.5237   30.4979 H          1 <1>        0.000
     35 H8         -3.9328   -5.6130   30.1810 H          1 <1>        0.000
     36 O1        -12.0630   -2.1440   31.4020 O.3        1 <1>        0.170
     37 H2        -12.6637   -1.4153   31.5050 H          1 <1>        0.000
@<TRIPOS>BOND
     1    2    1 2  
     2    1    3 am 
     3    3    4 1  
     4    5    6 2  
     5    5    7 1  
     6    5    8 1  
     7    7    9 1  
     8    8   10 1  
     9    1    8 1  
    10   11   12 1  
    11   11   15 1  
    12   12   13 2  
    13   13   14 1  
    14   14   15 2  
    15   14   16 1  
    16    8   15 1  
    17   17   18 2  
    18   17   19 1  
    19   19   20 1  
    20   19   21 1  
    21    3   19 1  
    22   22   23 1  
    23   23   24 ar 
    24   23   28 ar 
    25   28   27 ar 
    26   27   26 ar 
    27   26   25 ar 
    28   25   24 ar 
    29   22   29 1  
    30   22   30 1  
    31   24   31 1  
    32   25   32 1  
    33   26   33 1  
    34   27   34 1  
    35   28   35 1  
    36   12   22 1  
    37   36   37 1  
    38   17   36 1  
# Name:          No_7_144
# Creation time: Wed Mar 20 12:28:16 2024


@<TRIPOS>MOLECULE
000001_000009
   37    38     1     1     1
SMALL
USER_CHARGES


@<TRIPOS>ATOM
      1 C30        -7.8780   -2.2990   32.2090 C.2        1 <1>        0.060
      2 O32        -7.9100   -2.7650   31.0800 O.2        1 <1>        0.520
      3 N4         -8.9360   -2.3980   33.0750 N.am       1 <1>        0.500
      4 H          -8.8660   -2.0071   33.9928 H          1 <1>        0.000
      5 C1         -6.7920   -0.0990   32.3690 C.2        1 <1>        0.050
      6 O2         -7.7500    0.2980   31.7260 O.2        1 <1>        0.060
      7 O3         -5.8550    0.7400   32.7340 O.3        1 <1>        0.510
      8 C4         -6.6870   -1.5580   32.7430 C.3        1 <1>        0.050
      9 H5         -6.0630    1.6139   32.4250 H          1 <1>        0.000
     10 H8         -6.6560   -1.6550   33.8383 H          1 <1>        0.000
     11 O1         -5.2390   -2.2020   30.8210 O.3        1 <1>        0.670
     12 C1         -4.0260   -2.7700   30.6850 C.2        1 <1>        0.060
     13 N1         -3.5740   -3.0050   31.8430 N.2        1 <1>        0.080
     14 C2         -4.4450   -2.6170   32.9110 C.2        1 <1>        0.010
     15 C3         -5.4330   -2.1370   32.1540 C.2        1 <1>        0.050
     16 H2         -4.3310   -2.6920   33.9914 H          1 <1>        0.000
     17 C         -11.2520   -2.0590   32.4530 C.2        1 <1>        0.030
     18 O         -11.4230   -1.1560   33.2570 O.2        1 <1>        0.490
     19 C3        -10.1560   -3.0670   32.6670 C.3        1 <1>        0.020
     20 H2        -10.4568   -3.7746   33.4536 H          1 <1>        0.000
     21 H3         -9.9601   -3.6267   31.7405 H          1 <1>        0.000
     22 C1         -3.3320   -3.0710   29.3890 C.3        1 <1>        0.000
     23 C2         -2.3780   -4.2450   29.5830 C.ar       1 <1>        0.040
     24 C3         -1.0100   -4.0800   29.3470 C.ar       1 <1>        0.060
     25 C4         -0.1350   -5.1570   29.5250 C.ar       1 <1>        0.160
     26 C5         -0.6290   -6.3970   29.9400 C.ar       1 <1>        0.160
     27 C6         -1.9970   -6.5620   30.1760 C.ar       1 <1>        0.170
     28 C7         -2.8720   -5.4850   29.9980 C.ar       1 <1>        0.180
     29 H1         -2.7634   -2.1875   29.0632 H          1 <1>        0.000
     30 H3         -4.0792   -3.3281   28.6238 H          1 <1>        0.000
     31 H4         -0.6267   -3.1183   29.0258 H          1 <1>        0.000
     32 H5          0.9258   -5.0299   29.3419 H          1 <1>        0.000
     33 H6          0.0487   -7.2317   30.0779 H          1 <1>        0.000
     34 H7         -2.3799   -7.5237   30.4979 H          1 <1>        0.000
     35 H8         -3.9328   -5.6130   30.1810 H          1 <1>        0.000
     36 O1        -12.0630   -2.1440   31.4020 O.3        1 <1>        0.170
     37 H2        -11.7230   -2.8740   30.8980 H          1 <1>        0.000
@<TRIPOS>BOND
     1    2    1 2  
     2    1    3 am 
     3    3    4 1  
     4    5    6 2  
     5    5    7 1  
     6    5    8 1  
     7    7    9 1  
     8    8   10 1  
     9    1    8 1  
    10   11   12 1  
    11   11   15 1  
    12   12   13 2  
    13   13   14 1  
    14   14   15 2  
    15   14   16 1  
    16    8   15 1  
    17   17   18 2  
    18   17   19 1  
    19   19   20 1  
    20   19   21 1  
    21    3   19 1  
    22   22   23 1  
    23   23   24 ar 
    24   23   28 ar 
    25   28   27 ar 
    26   27   26 ar 
    27   26   25 ar 
    28   25   24 ar 
    29   22   29 1  
    30   22   30 1  
    31   24   31 1  
    32   25   32 1  
    33   26   33 1  
    34   27   34 1  
    35   28   35 1  
    36   12   22 1  
    37   36   37 1  
    38   17   36 1  
# Name:          No_7_66
# Creation time: Wed Mar 20 12:28:16 2024


@<TRIPOS>MOLECULE
000001_000010
   42    43     1     1     1
SMALL
USER_CHARGES


@<TRIPOS>ATOM
      1 C30        -7.8780   -2.2990   32.2090 C.2        1 <1>        0.060
      2 O32        -7.9100   -2.7650   31.0800 O.2        1 <1>        0.520
      3 N4         -8.9360   -2.3980   33.0750 N.am       1 <1>        0.500
      4 H          -8.8660   -2.0071   33.9928 H          1 <1>        0.000
      5 C1         -6.7920   -0.0990   32.3690 C.2        1 <1>        0.050
      6 O2         -7.7500    0.2980   31.7260 O.2        1 <1>        0.060
      7 O3         -5.8550    0.7400   32.7340 O.3        1 <1>        0.510
      8 C4         -6.6870   -1.5580   32.7430 C.3        1 <1>        0.050
      9 H5         -6.0630    1.6139   32.4250 H          1 <1>        0.000
     10 H8         -6.6560   -1.6550   33.8383 H          1 <1>        0.000
     11 O1         -5.2390   -2.2020   30.8210 O.3        1 <1>        0.670
     12 C1         -4.0260   -2.7700   30.6850 C.2        1 <1>        0.060
     13 N1         -3.5740   -3.0050   31.8430 N.2        1 <1>        0.080
     14 C2         -4.4450   -2.6170   32.9110 C.2        1 <1>        0.010
     15 C3         -5.4330   -2.1370   32.1540 C.2        1 <1>        0.050
     16 H2         -4.3310   -2.6920   33.9914 H          1 <1>        0.000
     17 C         -11.2520   -2.0590   32.4530 C.2        1 <1>       -0.010
     18 O         -11.4230   -1.1560   33.2570 O.2        1 <1>        0.490
     19 C3        -10.1560   -3.0670   32.6670 C.3        1 <1>        0.020
     20 H2        -10.4568   -3.7746   33.4536 H          1 <1>        0.000
     21 H3         -9.9601   -3.6267   31.7405 H          1 <1>        0.000
     22 C1         -3.3320   -3.0710   29.3890 C.3        1 <1>        0.000
     23 C2         -2.3780   -4.2450   29.5830 C.ar       1 <1>        0.040
     24 C3         -1.0100   -4.0800   29.3470 C.ar       1 <1>        0.060
     25 C4         -0.1350   -5.1570   29.5250 C.ar       1 <1>        0.160
     26 C5         -0.6290   -6.3970   29.9400 C.ar       1 <1>        0.160
     27 C6         -1.9970   -6.5620   30.1760 C.ar       1 <1>        0.170
     28 C7         -2.8720   -5.4850   29.9980 C.ar       1 <1>        0.180
     29 H1         -2.7634   -2.1875   29.0632 H          1 <1>        0.000
     30 H3         -4.0792   -3.3281   28.6238 H          1 <1>        0.000
     31 H4         -0.6267   -3.1183   29.0258 H          1 <1>        0.000
     32 H5          0.9258   -5.0299   29.3419 H          1 <1>        0.000
     33 H6          0.0487   -7.2317   30.0779 H          1 <1>        0.000
     34 H7         -2.3799   -7.5237   30.4979 H          1 <1>        0.000
     35 H8         -3.9328   -5.6130   30.1810 H          1 <1>        0.000
     36 N1        -11.3960   -2.0470   30.0090 N.4        1 <1>        0.230
     37 C1        -12.1670   -2.1550   31.2670 C.3        1 <1>        0.020
     38 H2        -10.7112   -2.7828   29.9340 H          1 <1>        0.000
     39 H3        -11.9975   -2.1100   29.2026 H          1 <1>        0.000
     40 H5        -12.9097   -1.3463   31.3330 H          1 <1>        0.000
     41 H7        -12.6969   -3.1179   31.3120 H          1 <1>        0.000
     42 H1        -10.9048   -1.1686   29.9530 H          1 <1>        0.000
@<TRIPOS>BOND
     1    2    1 2  
     2    1    3 am 
     3    3    4 1  
     4    5    6 2  
     5    5    7 1  
     6    5    8 1  
     7    7    9 1  
     8    8   10 1  
     9    1    8 1  
    10   11   12 1  
    11   11   15 1  
    12   12   13 2  
    13   13   14 1  
    14   14   15 2  
    15   14   16 1  
    16    8   15 1  
    17   17   18 2  
    18   17   19 1  
    19   19   20 1  
    20   19   21 1  
    21    3   19 1  
    22   22   23 1  
    23   23   24 ar 
    24   23   28 ar 
    25   28   27 ar 
    26   27   26 ar 
    27   26   25 ar 
    28   25   24 ar 
    29   22   29 1  
    30   22   30 1  
    31   24   31 1  
    32   25   32 1  
    33   26   33 1  
    34   27   34 1  
    35   28   35 1  
    36   12   22 1  
    37   36   37 1  
    38   36   38 1  
    39   36   39 1  
    40   37   40 1  
    41   37   41 1  
    42   36   42 1  
    43   17   37 1  
