MODEL 1
REMARK VINA RESULT:   -10.340      0.000      0.000
REMARK INTER + INTRA:         -16.512
REMARK INTER:                 -15.176
REMARK INTRA:                  -1.337
REMARK UNBOUND:                -1.337
REMARK  Name = =
REMARK  8 active torsions:
REMARK  status: ('A' for Active; 'I' for Inactive)
REMARK    1  A    between atoms: C_1  and  C_23
REMARK    2  A    between atoms: C_2  and  N_17
REMARK    3  A    between atoms: C_3  and  C_34
REMARK    4  A    between atoms: C_3  and  S_36
REMARK    5  A    between atoms: C_5  and  C_7
REMARK    6  A    between atoms: C_23  and  C_29
REMARK    7  A    between atoms: S_36  and  C_37
REMARK    8  A    between atoms: N_38  and  N_42
REMARK                            x       y       z     vdW  Elec       q    Type
REMARK                         _______ _______ _______ _____ _____    ______ ____
ROOT
ATOM      1  C   UNL     1      -0.701  -5.845  28.354  0.00  0.00    +0.057 C 
ATOM      2  C   UNL     1       0.192  -6.864  28.988  0.00  0.00    +0.077 C 
ATOM      3  C   UNL     1      -0.003  -7.039  30.462  0.00  0.00    +0.079 C 
ATOM      4  C   UNL     1      -0.963  -6.165  31.182  0.00  0.00    +0.018 C 
ATOM      5  C   UNL     1      -2.046  -5.541  30.434  0.00  0.00    +0.020 C 
ATOM      6  C   UNL     1      -2.039  -5.691  28.948  0.00  0.00    +0.007 C 
ENDROOT
BRANCH   5   7
ATOM      7  C   UNL     1      -3.389  -5.975  30.988  0.00  0.00    +0.076 C 
ATOM      8  N   UNL     1      -3.313  -7.150  31.789  0.00  0.00    -0.295 NA
ATOM      9  C   UNL     1      -4.359  -7.260  32.774  0.00  0.00    +0.073 C 
ATOM     10  C   UNL     1      -4.389  -6.067  33.709  0.00  0.00    +0.043 C 
ATOM     11  C   UNL     1      -4.653  -4.881  32.872  0.00  0.00    -0.024 C 
ATOM     12  C   UNL     1      -4.169  -4.874  31.590  0.00  0.00    -0.012 C 
ATOM     13  C   UNL     1      -4.457  -3.741  30.843  0.00  0.00    -0.003 C 
ATOM     14  C   UNL     1      -5.184  -2.678  31.351  0.00  0.00    -0.000 C 
ATOM     15  C   UNL     1      -5.652  -2.726  32.645  0.00  0.00    -0.000 C 
ATOM     16  C   UNL     1      -5.373  -3.844  33.394  0.00  0.00    -0.004 C 
ATOM     17  H   UNL     1      -2.415  -7.149  32.274  0.00  0.00    +0.124 HD
ENDBRANCH   5   7
BRANCH   2  18
ATOM     18  N   UNL     1       0.058  -8.175  28.355  0.00  0.00    -0.245 NA
ATOM     19  C   UNL     1      -0.915  -8.143  27.260  0.00  0.00    +0.148 C 
ATOM     20  N   UNL     1      -0.658  -9.342  26.469  0.00  0.00    -0.270 NA
ATOM     21  C   UNL     1       0.068 -10.346  27.194  0.00  0.00    +0.144 C 
ATOM     22  N   UNL     1       1.434  -9.837  27.406  0.00  0.00    -0.270 NA
ATOM     23  C   UNL     1       1.318  -8.432  27.588  0.00  0.00    +0.148 C 
ATOM     24  H   UNL     1      -0.116  -9.080  25.646  0.00  0.00    +0.126 HD
ATOM     25  H   UNL     1       2.015 -10.041  26.594  0.00  0.00    +0.126 HD
ENDBRANCH   2  18
BRANCH   1  26
ATOM     26  C   UNL     1       0.035  -4.522  28.156  0.00  0.00    +0.156 C 
ATOM     27  O   UNL     1       0.738  -4.698  26.912  0.00  0.00    -0.448 OA
ATOM     28  C   UNL     1       2.095  -4.545  27.122  0.00  0.00    +0.341 C 
ATOM     29  O   UNL     1       2.963  -4.648  26.220  0.00  0.00    -0.245 OA
ATOM     30  C   UNL     1       2.234  -4.260  28.539  0.00  0.00    +0.081 C 
ATOM     31  C   UNL     1       1.064  -4.241  29.142  0.00  0.00    +0.020 C 
BRANCH  26  32
ATOM     32  C   UNL     1      -0.877  -3.350  27.984  0.00  0.00    +0.041 C 
ATOM     33  C   UNL     1      -0.519  -2.446  26.863  0.00  0.00    +0.004 C 
ATOM     34  C   UNL     1      -1.285  -1.172  27.251  0.00  0.00    +0.000 C 
ATOM     35  C   UNL     1      -1.173  -1.118  28.765  0.00  0.00    +0.000 C 
ATOM     36  C   UNL     1      -0.649  -2.455  29.208  0.00  0.00    +0.004 C 
ENDBRANCH  26  32
ENDBRANCH   1  26
BRANCH   3  37
ATOM     37  C   UNL     1      -0.510  -8.431  30.716  0.00  0.00    -0.015 C 
ATOM     38  C   UNL     1      -1.164  -8.819  31.779  0.00  0.00    -0.004 C 
ENDBRANCH   3  37
BRANCH   3  39
ATOM     39  S   UNL     1       1.599  -6.903  31.339  0.00  0.00    -0.052 S 
BRANCH  39  40
ATOM     40  C   UNL     1       1.443  -7.084  33.068  0.00  0.00    +0.299 C 
ATOM     41  N   UNL     1       1.701  -5.988  33.931  0.00  0.00    -0.138 N 
ATOM     42  C   UNL     1       1.588  -6.087  35.333  0.00  0.00    +0.327 C 
ATOM     43  O   UNL     1       1.815  -5.101  36.088  0.00  0.00    -0.263 OA
ATOM     44  O   UNL     1       1.100  -8.161  33.594  0.00  0.00    -0.261 OA
BRANCH  41  45
ATOM     45  N   UNL     1       2.081  -4.761  33.365  0.00  0.00    -0.216 N 
ATOM     46  C   UNL     1       3.468  -4.413  33.271  0.00  0.00    +0.317 C 
ATOM     47  O   UNL     1       4.301  -5.271  33.722  0.00  0.00    -0.264 OA
ATOM     48  H   UNL     1       1.394  -4.139  33.032  0.00  0.00    +0.174 HD
ENDBRANCH  41  45
ENDBRANCH  39  40
ENDBRANCH   3  39
TORSDOF 8
ENDMDL
