MODEL 1
REMARK VINA RESULT:    -7.545      0.000      0.000
REMARK INTER + INTRA:         -12.881
REMARK INTER:                 -11.294
REMARK INTRA:                  -1.587
REMARK UNBOUND:                -1.587
REMARK  Name = =
REMARK  10 active torsions:
REMARK  status: ('A' for Active; 'I' for Inactive)
REMARK    1  A    between atoms: S_1  and  C_4
REMARK    2  A    between atoms: S_1  and  C_18
REMARK    3  A    between atoms: S_1  and  S_28
REMARK    4  A    between atoms: C_6  and  O_17
REMARK    5  A    between atoms: C_8  and  C_9
REMARK    6  A    between atoms: C_12  and  O_16
REMARK    7  A    between atoms: C_18  and  N_20
REMARK    8  A    between atoms: N_20  and  C_21
REMARK    9  A    between atoms: S_28  and  C_29
REMARK   10  A    between atoms: C_29  and  N_31
REMARK                            x       y       z     vdW  Elec       q    Type
REMARK                         _______ _______ _______ _____ _____    ______ ____
ROOT
ATOM      1  S   UNL     1      -1.514  -3.657  28.481  0.00  0.00    -0.121 S 
ATOM      2  H   UNL     1      -1.783  -4.243  27.283  0.00  0.00    +0.104 HD
ENDROOT
BRANCH   1   5
ATOM      3  F   UNL     1      -0.203  -6.007  27.308  0.00  0.00    -0.204 F 
ATOM      4  C   UNL     1       0.370  -5.566  28.471  0.00  0.00    +0.145 C 
ATOM      5  C   UNL     1      -0.130  -4.482  29.134  0.00  0.00    +0.050 C 
ATOM      6  C   UNL     1       0.482  -4.080  30.298  0.00  0.00    +0.044 C 
ATOM      7  C   UNL     1       1.572  -4.781  30.755  0.00  0.00    +0.134 C 
ATOM      8  C   UNL     1       2.082  -5.879  30.086  0.00  0.00    +0.039 C 
ATOM      9  C   UNL     1       1.460  -6.274  28.918  0.00  0.00    +0.031 C 
BRANCH   9  10
ATOM     10  C   UNL     1       1.987  -7.435  28.200  0.00  0.00    +0.003 C 
ATOM     11  C   UNL     1       1.185  -8.542  27.999  0.00  0.00    +0.010 C 
ATOM     12  C   UNL     1       1.641  -9.670  27.322  0.00  0.00    +0.068 C 
ATOM     13  C   UNL     1       2.934  -9.655  26.851  0.00  0.00    +0.140 C 
ATOM     14  C   UNL     1       3.739  -8.534  27.058  0.00  0.00    +0.037 C 
ATOM     15  C   UNL     1       3.281  -7.421  27.729  0.00  0.00    +0.003 C 
ATOM     16 BR   UNL     1       0.506 -11.194  27.056  0.00  0.00    -0.046 Br
BRANCH  13  17
ATOM     17  O   UNL     1       3.439 -10.746  26.172  0.00  0.00    -0.505 OA
ATOM     18  H   UNL     1       4.361 -10.817  26.019  0.00  0.00    +0.292 HD
ENDBRANCH  13  17
ENDBRANCH   9  10
BRANCH   7  19
ATOM     19  O   UNL     1       2.209  -4.380  31.945  0.00  0.00    -0.505 OA
ATOM     20  H   UNL     1       3.139  -4.456  32.026  0.00  0.00    +0.292 HD
ENDBRANCH   7  19
ENDBRANCH   1   5
BRANCH   1  21
ATOM     21  C   UNL     1      -2.859  -3.865  29.530  0.00  0.00    +0.101 C 
ATOM     22  S   UNL     1      -3.570  -2.540  30.168  0.00  0.00    -0.029 S 
BRANCH  21  23
ATOM     23  N   UNL     1      -3.376  -5.158  29.865  0.00  0.00    -0.323 N 
ATOM     24  H   UNL     1      -4.042  -5.579  29.276  0.00  0.00    +0.148 HD
BRANCH  23  25
ATOM     25  C   UNL     1      -2.938  -5.857  31.054  0.00  0.00    +0.087 C 
ATOM     26  C   UNL     1      -2.212  -7.105  30.636  0.00  0.00    +0.108 C 
ATOM     27  N   UNL     1      -1.151  -7.362  31.628  0.00  0.00    -0.216 NA
ATOM     28  C   UNL     1      -1.759  -7.296  32.946  0.00  0.00    +0.089 C 
ATOM     29  C   UNL     1      -2.996  -8.174  32.864  0.00  0.00    +0.019 C 
ATOM     30  C   UNL     1      -4.241  -7.455  32.520  0.00  0.00    +0.003 C 
ATOM     31  C   UNL     1      -4.097  -6.089  31.938  0.00  0.00    +0.021 C 
ENDBRANCH  23  25
ENDBRANCH  21  23
ENDBRANCH   1  21
BRANCH   1  32
ATOM     32  S   UNL     1      -1.251  -2.004  28.045  0.00  0.00    -0.046 S 
BRANCH  32  33
ATOM     33  C   UNL     1       0.124  -1.581  27.254  0.00  0.00    +0.114 C 
ATOM     34  S   UNL     1       1.475  -1.018  28.035  0.00  0.00    -0.028 S 
BRANCH  33  35
ATOM     35  N   UNL     1       0.298  -1.653  25.820  0.00  0.00    -0.346 N 
ATOM     36  H   UNL     1      -0.329  -2.179  25.274  0.00  0.00    +0.143 HD
ATOM     37  H   UNL     1       1.044  -1.175  25.390  0.00  0.00    +0.143 HD
ENDBRANCH  33  35
ENDBRANCH  32  33
ENDBRANCH   1  32
TORSDOF 10
ENDMDL
