MODEL 1
REMARK VINA RESULT:    -9.263      0.000      0.000
REMARK INTER + INTRA:         -14.379
REMARK INTER:                 -13.054
REMARK INTRA:                  -1.326
REMARK UNBOUND:                -1.326
REMARK  Name = =
REMARK  9 active torsions:
REMARK  status: ('A' for Active; 'I' for Inactive)
REMARK    1  A    between atoms: N_1  and  S_20
REMARK    2  A    between atoms: C_12  and  O_24
REMARK    3  A    between atoms: S_20  and  N_23
REMARK    4  A    between atoms: O_24  and  O_25
REMARK    5  A    between atoms: O_25  and  C_26
REMARK    6  A    between atoms: C_26  and  C_28
REMARK    7  A    between atoms: C_30  and  O_36
REMARK    8  A    between atoms: C_31  and  O_35
REMARK    9  A    between atoms: C_32  and  O_34
REMARK                            x       y       z     vdW  Elec       q    Type
REMARK                         _______ _______ _______ _____ _____    ______ ____
ROOT
ATOM      1  N   UNL     1       2.890  -2.072  25.977  0.00  0.00    -0.147 NA
ATOM      2  C   UNL     1       1.727  -2.903  25.789  0.00  0.00    +0.085 C 
ATOM      3  C   UNL     1       1.592  -3.937  26.832  0.00  0.00    +0.025 C 
ATOM      4  C   UNL     1       1.546  -3.261  28.161  0.00  0.00    +0.068 C 
ATOM      5  C   UNL     1       1.318  -4.167  29.353  0.00  0.00    +0.226 C 
ATOM      6  O   UNL     1       0.392  -3.460  30.174  0.00  0.00    -0.469 OA
ATOM      7  C   UNL     1      -0.425  -2.698  29.293  0.00  0.00    +0.173 C 
ATOM      8  C   UNL     1       0.209  -2.585  28.104  0.00  0.00    +0.014 C 
ATOM      9  C   UNL     1      -0.221  -1.952  26.986  0.00  0.00    -0.022 C 
ATOM     10  C   UNL     1      -1.476  -1.343  27.098  0.00  0.00    -0.001 C 
ATOM     11  C   UNL     1      -2.191  -1.411  28.290  0.00  0.00    +0.045 C 
ATOM     12  C   UNL     1      -1.665  -2.094  29.396  0.00  0.00    +0.229 C 
ATOM     13  C   UNL     1       0.554  -1.952  25.704  0.00  0.00    +0.044 C 
ATOM     14  C   UNL     1       0.881  -5.451  28.841  0.00  0.00    +0.191 C 
ATOM     15  O   UNL     1      -0.140  -5.975  29.222  0.00  0.00    -0.292 OA
ATOM     16  C   UNL     1       1.702  -6.148  27.815  0.00  0.00    +0.068 C 
ATOM     17  C   UNL     1       2.291  -5.199  26.778  0.00  0.00    +0.010 C 
ATOM     18  C   UNL     1       2.635  -2.292  28.407  0.00  0.00    +0.027 C 
ATOM     19  C   UNL     1       2.929  -1.429  27.244  0.00  0.00    +0.097 C 
ENDROOT
BRANCH   1  20
ATOM     20  S   UNL     1       3.552  -1.324  24.653  0.00  0.00    +0.096 S 
ATOM     21  O   UNL     1       3.413  -2.185  23.426  0.00  0.00    -0.141 OA
ATOM     22  O   UNL     1       5.030  -1.102  24.906  0.00  0.00    -0.141 OA
BRANCH  20  23
ATOM     23  N   UNL     1       2.863   0.234  24.376  0.00  0.00    -0.193 NA
ATOM     24  H   UNL     1       3.563   0.952  24.562  0.00  0.00    +0.145 HD
ATOM     25  H   UNL     1       2.065   0.368  24.997  0.00  0.00    +0.145 HD
ENDBRANCH  20  23
ENDBRANCH   1  20
BRANCH  12  26
ATOM     26  O   UNL     1      -2.374  -2.166  30.584  0.00  0.00    -0.280 OA
BRANCH  26  27
ATOM     27  O   UNL     1      -3.725  -2.069  30.541  0.00  0.00    -0.244 OA
BRANCH  27  28
ATOM     28  C   UNL     1      -4.573  -3.073  30.981  0.00  0.00    +0.388 C 
ATOM     29  O   UNL     1      -5.807  -2.838  30.933  0.00  0.00    -0.241 OA
BRANCH  28  30
ATOM     30  C   UNL     1      -4.095  -4.346  31.479  0.00  0.00    +0.086 C 
ATOM     31  C   UNL     1      -3.598  -5.307  30.634  0.00  0.00    +0.047 C 
ATOM     32  C   UNL     1      -3.138  -6.535  31.120  0.00  0.00    +0.171 C 
ATOM     33  C   UNL     1      -3.173  -6.812  32.464  0.00  0.00    +0.202 C 
ATOM     34  C   UNL     1      -3.672  -5.850  33.325  0.00  0.00    +0.171 C 
ATOM     35  C   UNL     1      -4.126  -4.630  32.819  0.00  0.00    +0.047 C 
BRANCH  34  36
ATOM     36  O   UNL     1      -3.717  -6.107  34.687  0.00  0.00    -0.503 OA
ATOM     37  H   UNL     1      -4.465  -5.848  35.188  0.00  0.00    +0.292 HD
ENDBRANCH  34  36
BRANCH  33  38
ATOM     38  O   UNL     1      -2.738  -8.002  33.035  0.00  0.00    -0.501 OA
ATOM     39  H   UNL     1      -3.025  -8.822  32.684  0.00  0.00    +0.292 HD
ENDBRANCH  33  38
BRANCH  32  40
ATOM     40  O   UNL     1      -2.644  -7.481  30.250  0.00  0.00    -0.503 OA
ATOM     41  H   UNL     1      -1.823  -7.340  29.820  0.00  0.00    +0.292 HD
ENDBRANCH  32  40
ENDBRANCH  28  30
ENDBRANCH  27  28
ENDBRANCH  26  27
ENDBRANCH  12  26
TORSDOF 9
ENDMDL
