REMARK  Name = =
REMARK  9 active torsions:
REMARK  status: ('A' for Active; 'I' for Inactive)
REMARK    1  A    between atoms: N_1  and  S_20
REMARK    2  A    between atoms: C_12  and  O_24
REMARK    3  A    between atoms: S_20  and  N_23
REMARK    4  A    between atoms: O_24  and  O_25
REMARK    5  A    between atoms: O_25  and  C_26
REMARK    6  A    between atoms: C_26  and  C_28
REMARK    7  A    between atoms: C_30  and  O_36
REMARK    8  A    between atoms: C_31  and  O_35
REMARK    9  A    between atoms: C_32  and  O_34
REMARK                            x       y       z     vdW  Elec       q    Type
REMARK                         _______ _______ _______ _____ _____    ______ ____
ROOT
ATOM      1  N   UNL     1      -6.511   0.003  31.444  0.00  0.00    -0.147 NA
ATOM      2  C   UNL     1      -7.067  -1.178  30.834  0.00  0.00    +0.085 C 
ATOM      3  C   UNL     1      -7.747  -2.055  31.806  0.00  0.00    +0.025 C 
ATOM      4  C   UNL     1      -8.812  -1.264  32.488  0.00  0.00    +0.068 C 
ATOM      5  C   UNL     1      -9.679  -2.032  33.464  0.00  0.00    +0.226 C 
ATOM      6  O   UNL     1     -11.003  -1.565  33.217  0.00  0.00    -0.469 OA
ATOM      7  C   UNL     1     -11.061  -1.232  31.835  0.00  0.00    +0.173 C 
ATOM      8  C   UNL     1      -9.799  -1.074  31.375  0.00  0.00    +0.014 C 
ATOM      9  C   UNL     1      -9.402  -0.767  30.117  0.00  0.00    -0.022 C 
ATOM     10  C   UNL     1     -10.441  -0.591  29.196  0.00  0.00    -0.001 C 
ATOM     11  C   UNL     1     -11.767  -0.733  29.592  0.00  0.00    +0.045 C 
ATOM     12  C   UNL     1     -12.082  -1.057  30.919  0.00  0.00    +0.229 C 
ATOM     13  C   UNL     1      -7.960  -0.681  29.719  0.00  0.00    +0.044 C 
ATOM     14  C   UNL     1      -9.438  -3.443  33.237  0.00  0.00    +0.191 C 
ATOM     15  O   UNL     1     -10.340  -4.217  33.017  0.00  0.00    -0.292 OA
ATOM     16  C   UNL     1      -8.044  -3.962  33.270  0.00  0.00    +0.068 C 
ATOM     17  C   UNL     1      -7.041  -3.016  32.620  0.00  0.00    +0.010 C 
ATOM     18  C   UNL     1      -8.368   0.030  33.047  0.00  0.00    +0.027 C 
ATOM     19  C   UNL     1      -7.469   0.783  32.148  0.00  0.00    +0.097 C 
ENDROOT
BRANCH   1  20
ATOM     20  S   UNL     1      -5.226   0.747  30.706  0.00  0.00    +0.096 S 
ATOM     21  O   UNL     1      -4.175  -0.259  30.318  0.00  0.00    -0.141 OA
ATOM     22  O   UNL     1      -4.603   1.727  31.680  0.00  0.00    -0.141 OA
BRANCH  20  23
ATOM     23  N   UNL     1      -5.713   1.668  29.330  0.00  0.00    -0.193 NA
ATOM     24  H   UNL     1      -6.424   2.344  29.608  0.00  0.00    +0.145 HD
ATOM     25  H   UNL     1      -6.097   1.043  28.621  0.00  0.00    +0.145 HD
ENDBRANCH  20  23
ENDBRANCH   1  20
BRANCH  12  26
ATOM     26  O   UNL     1     -13.401  -1.201  31.317  0.00  0.00    -0.280 OA
BRANCH  26  27
ATOM     27  O   UNL     1     -14.316  -1.599  30.400  0.00  0.00    -0.244 OA
BRANCH  27  28
ATOM     28  C   UNL     1     -14.578  -0.897  29.234  0.00  0.00    +0.388 C 
ATOM     29  O   UNL     1     -15.095   0.242  29.359  0.00  0.00    -0.241 OA
BRANCH  28  30
ATOM     30  C   UNL     1     -14.282  -1.419  27.916  0.00  0.00    +0.086 C 
ATOM     31  C   UNL     1     -14.644  -2.691  27.549  0.00  0.00    +0.047 C 
ATOM     32  C   UNL     1     -14.356  -3.190  26.275  0.00  0.00    +0.171 C 
ATOM     33  C   UNL     1     -13.699  -2.415  25.353  0.00  0.00    +0.202 C 
ATOM     34  C   UNL     1     -13.329  -1.130  25.712  0.00  0.00    +0.171 C 
ATOM     35  C   UNL     1     -13.627  -0.651  26.990  0.00  0.00    +0.047 C 
BRANCH  34  36
ATOM     36  O   UNL     1     -12.665  -0.327  24.797  0.00  0.00    -0.503 OA
ATOM     37  H   UNL     1     -12.469  -0.655  23.942  0.00  0.00    +0.292 HD
ENDBRANCH  34  36
BRANCH  33  38
ATOM     38  O   UNL     1     -13.372  -2.826  24.067  0.00  0.00    -0.501 OA
ATOM     39  H   UNL     1     -12.921  -2.242  23.489  0.00  0.00    +0.292 HD
ENDBRANCH  33  38
BRANCH  32  40
ATOM     40  O   UNL     1     -14.731  -4.471  25.934  0.00  0.00    -0.503 OA
ATOM     41  H   UNL     1     -15.180  -5.009  26.556  0.00  0.00    +0.292 HD
ENDBRANCH  32  40
ENDBRANCH  28  30
ENDBRANCH  27  28
ENDBRANCH  26  27
ENDBRANCH  12  26
TORSDOF 9
