REMARK  Name = =
REMARK  1 active torsions:
REMARK  status: ('A' for Active; 'I' for Inactive)
REMARK    1  A    between atoms: N_4  and  C_7
REMARK                            x       y       z     vdW  Elec       q    Type
REMARK                         _______ _______ _______ _____ _____    ______ ____
ROOT
ATOM      1  N   UNL     1      -4.320  -3.951  30.668  0.00  0.00    -0.214 NA
ATOM      2  C   UNL     1      -3.480  -3.457  29.596  0.00  0.00    +0.110 C 
ATOM      3  C   UNL     1      -2.057  -3.536  30.047  0.00  0.00    +0.111 C 
ATOM      4  N   UNL     1      -1.762  -4.943  30.341  0.00  0.00    -0.290 N 
ATOM      5  C   UNL     1      -2.586  -5.570  31.323  0.00  0.00    +0.111 C 
ATOM      6  C   UNL     1      -4.064  -5.326  30.977  0.00  0.00    +0.110 C 
ENDROOT
BRANCH   4   7
ATOM      7  C   UNL     1      -0.693  -5.586  29.644  0.00  0.00    +0.132 C 
ATOM      8  C   UNL     1      -0.285  -6.876  29.891  0.00  0.00    +0.034 C 
ATOM      9  C   UNL     1       0.772  -7.448  29.170  0.00  0.00    +0.004 C 
ATOM     10  C   UNL     1       1.434  -6.734  28.191  0.00  0.00    +0.021 C 
ATOM     11  C   UNL     1       0.991  -5.445  27.977  0.00  0.00    +0.100 C 
ATOM     12  N   UNL     1      -0.025  -4.908  28.677  0.00  0.00    -0.229 NA
ENDBRANCH   4   7
TORSDOF 1
