REMARK  Name = =
REMARK  2 active torsions:
REMARK  status: ('A' for Active; 'I' for Inactive)
REMARK    1  A    between atoms: C_3  and  C_7
REMARK    2  A    between atoms: N_4  and  C_13
REMARK                            x       y       z     vdW  Elec       q    Type
REMARK                         _______ _______ _______ _____ _____    ______ ____
ROOT
ATOM      1  N   UNL     1      -4.228  -3.725  31.078  0.00  0.00    -0.214 NA
ATOM      2  C   UNL     1      -4.297  -4.724  30.068  0.00  0.00    +0.113 C 
ATOM      3  C   UNL     1      -3.037  -5.573  30.056  0.00  0.00    +0.114 C 
ATOM      4  N   UNL     1      -1.863  -4.763  29.949  0.00  0.00    -0.288 N 
ATOM      5  C   UNL     1      -1.792  -3.516  30.674  0.00  0.00    +0.111 C 
ATOM      6  C   UNL     1      -3.116  -2.861  30.900  0.00  0.00    +0.110 C 
ENDROOT
BRANCH   3   7
ATOM      7  C   UNL     1      -2.965  -6.467  31.281  0.00  0.00    -0.003 C 
ATOM      8  C   UNL     1      -4.014  -6.589  32.067  0.00  0.00    -0.003 C 
ATOM      9  C   UNL     1      -4.010  -7.429  33.258  0.00  0.00    -0.000 C 
ATOM     10  C   UNL     1      -2.915  -8.089  33.558  0.00  0.00    -0.000 C 
ATOM     11  C   UNL     1      -1.678  -8.034  32.762  0.00  0.00    -0.000 C 
ATOM     12  C   UNL     1      -1.714  -7.186  31.558  0.00  0.00    -0.003 C 
ENDBRANCH   3   7
BRANCH   4  13
ATOM     13  C   UNL     1      -0.767  -5.124  29.168  0.00  0.00    +0.132 C 
ATOM     14  C   UNL     1      -0.872  -6.097  28.211  0.00  0.00    +0.034 C 
ATOM     15  C   UNL     1       0.202  -6.490  27.405  0.00  0.00    +0.004 C 
ATOM     16  C   UNL     1       1.405  -5.865  27.595  0.00  0.00    +0.021 C 
ATOM     17  C   UNL     1       1.501  -4.886  28.562  0.00  0.00    +0.100 C 
ATOM     18  N   UNL     1       0.453  -4.533  29.315  0.00  0.00    -0.229 NA
ENDBRANCH   4  13
TORSDOF 2
