REMARK  Name = =
REMARK  4 active torsions:
REMARK  status: ('A' for Active; 'I' for Inactive)
REMARK    1  A    between atoms: C_3  and  C_7
REMARK    2  A    between atoms: N_4  and  C_20
REMARK    3  A    between atoms: C_5  and  C_13
REMARK    4  A    between atoms: C_15  and  S_19
REMARK                            x       y       z     vdW  Elec       q    Type
REMARK                         _______ _______ _______ _____ _____    ______ ____
ROOT
ATOM      1  N   UNL     1      -4.043  -5.593  33.785  0.00  0.00    -0.214 NA
ATOM      2  C   UNL     1      -3.396  -4.297  33.781  0.00  0.00    +0.113 C 
ATOM      3  C   UNL     1      -3.765  -3.637  32.490  0.00  0.00    +0.114 C 
ATOM      4  N   UNL     1      -3.322  -4.431  31.341  0.00  0.00    -0.285 N 
ATOM      5  C   UNL     1      -3.409  -5.859  31.402  0.00  0.00    +0.132 C 
ATOM      6  C   UNL     1      -3.401  -6.404  32.810  0.00  0.00    +0.115 C 
ENDROOT
BRANCH   3   7
ATOM      7  C   UNL     1      -5.199  -3.257  32.395  0.00  0.00    -0.003 C 
ATOM      8  C   UNL     1      -6.011  -3.429  33.420  0.00  0.00    -0.003 C 
ATOM      9  C   UNL     1      -7.425  -3.082  33.400  0.00  0.00    -0.000 C 
ATOM     10  C   UNL     1      -7.940  -2.568  32.307  0.00  0.00    -0.000 C 
ATOM     11  C   UNL     1      -7.142  -2.334  31.112  0.00  0.00    -0.000 C 
ATOM     12  C   UNL     1      -5.709  -2.664  31.134  0.00  0.00    -0.003 C 
ENDBRANCH   3   7
BRANCH   5  13
ATOM     13  C   UNL     1      -2.329  -6.580  30.689  0.00  0.00    +0.079 C 
ATOM     14  C   UNL     1      -1.000  -6.268  30.767  0.00  0.00    +0.022 C 
ATOM     15  C   UNL     1      -0.062  -7.010  30.074  0.00  0.00    +0.024 C 
ATOM     16  C   UNL     1      -0.439  -8.093  29.279  0.00  0.00    +0.027 C 
ATOM     17  C   UNL     1      -1.790  -8.363  29.237  0.00  0.00    +0.099 C 
ATOM     18  N   UNL     1      -2.669  -7.625  29.919  0.00  0.00    -0.246 NA
BRANCH  15  19
ATOM     19  S   UNL     1       1.685  -6.627  30.155  0.00  0.00    -0.141 S 
ATOM     20  H   UNL     1       1.876  -5.552  30.966  0.00  0.00    +0.107 HD
ENDBRANCH  15  19
ENDBRANCH   5  13
BRANCH   4  21
ATOM     21  C   UNL     1      -2.813  -3.720  30.225  0.00  0.00    +0.132 C 
ATOM     22  C   UNL     1      -2.836  -4.142  28.929  0.00  0.00    +0.034 C 
ATOM     23  C   UNL     1      -2.299  -3.388  27.904  0.00  0.00    +0.004 C 
ATOM     24  C   UNL     1      -1.721  -2.178  28.172  0.00  0.00    +0.021 C 
ATOM     25  C   UNL     1      -1.695  -1.748  29.478  0.00  0.00    +0.100 C 
ATOM     26  N   UNL     1      -2.221  -2.503  30.431  0.00  0.00    -0.229 NA
ENDBRANCH   4  21
TORSDOF 4
