REMARK  Name = =
REMARK  3 active torsions:
REMARK  status: ('A' for Active; 'I' for Inactive)
REMARK    1  A    between atoms: C_5  and  S_20
REMARK    2  A    between atoms: C_8  and  C_10
REMARK    3  A    between atoms: S_20  and  C_21
REMARK                            x       y       z     vdW  Elec       q    Type
REMARK                         _______ _______ _______ _____ _____    ______ ____
ROOT
ATOM      1  N   UNL     1      -2.615  -3.649  31.398  0.00  0.00    -0.313 N 
ATOM      2  C   UNL     1      -2.238  -3.439  30.050  0.00  0.00    +0.302 C 
ATOM      3  O   UNL     1      -2.916  -2.510  29.468  0.00  0.00    -0.253 OA
ATOM      4  N   UNL     1      -1.257  -4.108  29.346  0.00  0.00    -0.251 N 
ATOM      5  C   UNL     1      -0.457  -5.178  29.845  0.00  0.00    +0.161 C 
ATOM      6  C   UNL     1       1.004  -4.673  29.842  0.00  0.00    +0.174 C 
ATOM      7  O   UNL     1       1.312  -4.219  28.554  0.00  0.00    -0.346 OA
ATOM      8  C   UNL     1       0.525  -3.168  28.183  0.00  0.00    +0.176 C 
ATOM      9  C   UNL     1      -0.917  -3.692  27.998  0.00  0.00    +0.131 C 
ATOM     10  H   UNL     1      -3.334  -3.108  31.798  0.00  0.00    +0.146 HD
ATOM     11  H   UNL     1      -2.158  -4.336  31.936  0.00  0.00    +0.146 HD
ENDROOT
BRANCH   8  12
ATOM     12  C   UNL     1       0.996  -2.402  27.042  0.00  0.00    +0.107 C 
ATOM     13  N   UNL     1       1.513  -3.016  25.972  0.00  0.00    -0.244 NA
ATOM     14  C   UNL     1       1.959  -2.322  24.904  0.00  0.00    +0.099 C 
ATOM     15  C   UNL     1       1.862  -0.951  24.954  0.00  0.00    +0.099 C 
ATOM     16  N   UNL     1       1.343  -0.293  26.025  0.00  0.00    -0.241 NA
ATOM     17  C   UNL     1       0.918  -1.033  27.051  0.00  0.00    +0.116 C 
ATOM     18  C   UNL     1       2.306  -0.191  23.885  0.00  0.00    +0.021 C 
ATOM     19  C   UNL     1       2.838  -0.837  22.789  0.00  0.00    +0.002 C 
ATOM     20  C   UNL     1       2.925  -2.208  22.757  0.00  0.00    +0.002 C 
ATOM     21  C   UNL     1       2.490  -2.979  23.809  0.00  0.00    +0.021 C 
ENDBRANCH   8  12
BRANCH   5  22
ATOM     22  S   UNL     1      -0.917  -5.944  31.361  0.00  0.00    -0.052 S 
BRANCH  22  23
ATOM     23  C   UNL     1      -2.250  -7.093  31.120  0.00  0.00    +0.209 A 
ATOM     24  N   UNL     1      -2.178  -8.357  30.617  0.00  0.00    -0.234 N 
ATOM     25  N   UNL     1      -3.395  -8.875  30.610  0.00  0.00    -0.046 NA
ATOM     26  N   UNL     1      -4.255  -7.985  31.094  0.00  0.00    -0.022 NA
ATOM     27  N   UNL     1      -3.539  -6.924  31.392  0.00  0.00    -0.102 NA
ATOM     28  H   UNL     1      -1.359  -8.809  30.311  0.00  0.00    +0.193 HD
ENDBRANCH  22  23
ENDBRANCH   5  22
TORSDOF 3
