REMARK  Name = =
REMARK  4 active torsions:
REMARK  status: ('A' for Active; 'I' for Inactive)
REMARK    1  A    between atoms: C_3  and  C_19
REMARK    2  A    between atoms: N_4  and  C_25
REMARK    3  A    between atoms: C_5  and  C_7
REMARK    4  A    between atoms: C_9  and  S_18
REMARK                            x       y       z     vdW  Elec       q    Type
REMARK                         _______ _______ _______ _____ _____    ______ ____
ROOT
ATOM      1  N   UNL     1       2.076  -5.663  32.272  0.00  0.00    -0.214 NA
ATOM      2  C   UNL     1       1.787  -6.879  31.504  0.00  0.00    +0.113 C 
ATOM      3  C   UNL     1       1.012  -6.478  30.258  0.00  0.00    +0.114 C 
ATOM      4  N   UNL     1       0.244  -5.310  30.535  0.00  0.00    -0.285 N 
ATOM      5  C   UNL     1       1.040  -4.088  30.660  0.00  0.00    +0.132 C 
ATOM      6  C   UNL     1       2.296  -4.552  31.420  0.00  0.00    +0.115 C 
ENDROOT
BRANCH   5   7
ATOM      7  C   UNL     1       1.516  -3.574  29.353  0.00  0.00    +0.080 C 
ATOM      8  C   UNL     1       0.900  -2.564  28.677  0.00  0.00    +0.022 C 
ATOM      9  C   UNL     1       1.422  -2.144  27.475  0.00  0.00    +0.025 C 
ATOM     10  C   UNL     1       2.541  -2.751  26.995  0.00  0.00    +0.040 C 
ATOM     11  C   UNL     1       3.172  -3.775  27.674  0.00  0.00    +0.134 C 
ATOM     12  N   UNL     1       4.339  -4.386  27.139  0.00  0.00    -0.266 N 
ATOM     13  C   UNL     1       5.016  -4.072  25.903  0.00  0.00    +0.127 C 
ATOM     14  C   UNL     1       6.433  -4.511  26.204  0.00  0.00    +0.166 C 
ATOM     15  O   UNL     1       6.421  -5.183  27.399  0.00  0.00    -0.332 OA
ATOM     16  C   UNL     1       5.108  -5.466  27.734  0.00  0.00    +0.242 C 
ATOM     17  N   UNL     1       2.638  -4.160  28.840  0.00  0.00    -0.233 NA
BRANCH   9  18
ATOM     18  S   UNL     1       0.574  -0.818  26.633  0.00  0.00    -0.141 S 
ATOM     19  H   UNL     1      -0.503  -0.430  27.368  0.00  0.00    +0.107 HD
ENDBRANCH   9  18
ENDBRANCH   5   7
BRANCH   3  20
ATOM     20  C   UNL     1       0.394  -7.601  29.580  0.00  0.00    -0.003 C 
ATOM     21  C   UNL     1      -0.260  -8.490  30.298  0.00  0.00    -0.003 C 
ATOM     22  C   UNL     1      -0.921  -9.645  29.712  0.00  0.00    -0.000 C 
ATOM     23  C   UNL     1      -0.885  -9.830  28.413  0.00  0.00    -0.000 C 
ATOM     24  C   UNL     1      -0.197  -8.896  27.524  0.00  0.00    -0.000 C 
ATOM     25  C   UNL     1       0.562  -7.801  28.136  0.00  0.00    -0.003 C 
ENDBRANCH   3  20
BRANCH   4  26
ATOM     26  C   UNL     1      -1.143  -5.229  30.759  0.00  0.00    +0.132 C 
ATOM     27  C   UNL     1      -1.804  -6.118  31.584  0.00  0.00    +0.034 C 
ATOM     28  C   UNL     1      -3.161  -6.019  31.786  0.00  0.00    +0.004 C 
ATOM     29  C   UNL     1      -3.851  -5.010  31.147  0.00  0.00    +0.021 C 
ATOM     30  C   UNL     1      -3.156  -4.131  30.323  0.00  0.00    +0.100 C 
ATOM     31  N   UNL     1      -1.843  -4.232  30.131  0.00  0.00    -0.229 NA
ENDBRANCH   4  26
TORSDOF 4
