REMARK  Name = =
REMARK  5 active torsions:
REMARK  status: ('A' for Active; 'I' for Inactive)
REMARK    1  A    between atoms: N_1  and  N_19
REMARK    2  A    between atoms: C_3  and  C_26
REMARK    3  A    between atoms: N_4  and  C_32
REMARK    4  A    between atoms: C_5  and  C_7
REMARK    5  A    between atoms: C_9  and  S_18
REMARK                            x       y       z     vdW  Elec       q    Type
REMARK                         _______ _______ _______ _____ _____    ______ ____
ROOT
ATOM      1  N   UNL     1       3.356  -6.617  25.298  0.00  0.00    -0.203 NA
ATOM      2  C   UNL     1       2.364  -5.591  25.468  0.00  0.00    +0.116 C 
ATOM      3  C   UNL     1       2.756  -4.255  24.863  0.00  0.00    +0.115 C 
ATOM      4  N   UNL     1       3.125  -4.482  23.503  0.00  0.00    -0.285 N 
ATOM      5  C   UNL     1       3.799  -5.696  23.059  0.00  0.00    +0.132 C 
ATOM      6  C   UNL     1       3.648  -6.873  23.932  0.00  0.00    +0.118 C 
ENDROOT
BRANCH   5   7
ATOM      7  C   UNL     1       3.183  -6.058  21.730  0.00  0.00    +0.080 C 
ATOM      8  C   UNL     1       2.037  -6.830  21.751  0.00  0.00    +0.022 C 
ATOM      9  C   UNL     1       1.421  -7.199  20.571  0.00  0.00    +0.025 C 
ATOM     10  C   UNL     1       1.995  -6.768  19.395  0.00  0.00    +0.040 C 
ATOM     11  C   UNL     1       3.153  -5.988  19.395  0.00  0.00    +0.134 C 
ATOM     12  N   UNL     1       3.687  -5.582  18.153  0.00  0.00    -0.266 N 
ATOM     13  C   UNL     1       3.185  -5.868  16.829  0.00  0.00    +0.127 C 
ATOM     14  C   UNL     1       3.856  -4.833  15.984  0.00  0.00    +0.166 C 
ATOM     15  O   UNL     1       4.623  -4.039  16.830  0.00  0.00    -0.332 OA
ATOM     16  C   UNL     1       4.875  -4.778  17.965  0.00  0.00    +0.242 C 
ATOM     17  N   UNL     1       3.704  -5.663  20.578  0.00  0.00    -0.233 NA
BRANCH   9  18
ATOM     18  S   UNL     1      -0.056  -8.195  20.615  0.00  0.00    -0.141 S 
ATOM     19  H   UNL     1      -0.383  -8.464  21.907  0.00  0.00    +0.107 HD
ENDBRANCH   9  18
ENDBRANCH   5   7
BRANCH   1  20
ATOM     20  N   UNL     1       2.851  -7.787  25.871  0.00  0.00    -0.260 N 
ATOM     21  C   UNL     1       2.432  -8.914  25.146  0.00  0.00    +0.142 C 
ATOM     22  N   UNL     1       1.166  -9.007  24.738  0.00  0.00    -0.228 NA
ATOM     23  C   UNL     1       0.688 -10.046  24.043  0.00  0.00    +0.100 C 
ATOM     24  C   UNL     1       1.559 -11.063  23.741  0.00  0.00    +0.021 C 
ATOM     25  C   UNL     1       2.866 -11.005  24.142  0.00  0.00    +0.004 C 
ATOM     26  C   UNL     1       3.339  -9.909  24.867  0.00  0.00    +0.035 C 
ATOM     27  H   UNL     1       2.784  -7.824  26.853  0.00  0.00    +0.168 HD
ENDBRANCH   1  20
BRANCH   3  28
ATOM     28  C   UNL     1       3.874  -3.604  25.649  0.00  0.00    -0.003 C 
ATOM     29  C   UNL     1       4.267  -4.134  26.766  0.00  0.00    -0.003 C 
ATOM     30  C   UNL     1       5.339  -3.562  27.567  0.00  0.00    -0.000 C 
ATOM     31  C   UNL     1       5.909  -2.477  27.110  0.00  0.00    -0.000 C 
ATOM     32  C   UNL     1       5.557  -1.799  25.867  0.00  0.00    -0.000 C 
ATOM     33  C   UNL     1       4.438  -2.376  25.125  0.00  0.00    -0.003 C 
ENDBRANCH   3  28
BRANCH   4  34
ATOM     34  C   UNL     1       2.852  -3.521  22.478  0.00  0.00    +0.132 C 
ATOM     35  C   UNL     1       1.580  -3.204  22.083  0.00  0.00    +0.034 C 
ATOM     36  C   UNL     1       1.408  -2.257  21.087  0.00  0.00    +0.004 C 
ATOM     37  C   UNL     1       2.476  -1.636  20.496  0.00  0.00    +0.021 C 
ATOM     38  C   UNL     1       3.735  -1.988  20.927  0.00  0.00    +0.100 C 
ATOM     39  N   UNL     1       3.927  -2.901  21.886  0.00  0.00    -0.229 NA
ENDBRANCH   4  34
TORSDOF 5
