REMARK  Name = =
REMARK  6 active torsions:
REMARK  status: ('A' for Active; 'I' for Inactive)
REMARK    1  A    between atoms: N_1  and  N_19
REMARK    2  A    between atoms: C_3  and  C_26
REMARK    3  A    between atoms: N_4  and  C_37
REMARK    4  A    between atoms: C_5  and  C_7
REMARK    5  A    between atoms: C_9  and  S_18
REMARK    6  A    between atoms: C_31  and  C_32
REMARK                            x       y       z     vdW  Elec       q    Type
REMARK                         _______ _______ _______ _____ _____    ______ ____
ROOT
ATOM      1  N   UNL     1       4.473  -4.319  23.949  0.00  0.00    -0.203 NA
ATOM      2  C   UNL     1       4.168  -4.155  25.354  0.00  0.00    +0.116 C 
ATOM      3  C   UNL     1       2.693  -4.555  25.463  0.00  0.00    +0.114 C 
ATOM      4  N   UNL     1       2.706  -5.926  25.003  0.00  0.00    -0.285 N 
ATOM      5  C   UNL     1       2.897  -6.107  23.585  0.00  0.00    +0.132 C 
ATOM      6  C   UNL     1       4.338  -5.569  23.366  0.00  0.00    +0.118 C 
ENDROOT
BRANCH   5   7
ATOM      7  C   UNL     1       2.831  -7.485  23.104  0.00  0.00    +0.080 C 
ATOM      8  C   UNL     1       1.625  -7.852  22.487  0.00  0.00    +0.022 C 
ATOM      9  C   UNL     1       1.446  -9.085  21.946  0.00  0.00    +0.025 C 
ATOM     10  C   UNL     1       2.497  -9.980  22.018  0.00  0.00    +0.040 C 
ATOM     11  C   UNL     1       3.674  -9.601  22.630  0.00  0.00    +0.134 C 
ATOM     12  N   UNL     1       4.707 -10.563  22.662  0.00  0.00    -0.266 N 
ATOM     13  C   UNL     1       4.793 -11.790  21.930  0.00  0.00    +0.127 C 
ATOM     14  C   UNL     1       5.630 -12.646  22.877  0.00  0.00    +0.166 C 
ATOM     15  O   UNL     1       5.993 -11.811  23.940  0.00  0.00    -0.332 OA
ATOM     16  C   UNL     1       5.900 -10.494  23.471  0.00  0.00    +0.242 C 
ATOM     17  N   UNL     1       3.847  -8.362  23.173  0.00  0.00    -0.233 NA
BRANCH   9  18
ATOM     18  S   UNL     1      -0.106  -9.578  21.163  0.00  0.00    -0.141 S 
ATOM     19  H   UNL     1      -0.001 -10.857  20.713  0.00  0.00    +0.107 HD
ENDBRANCH   9  18
ENDBRANCH   5   7
BRANCH   1  20
ATOM     20  N   UNL     1       4.183  -3.200  23.174  0.00  0.00    -0.260 N 
ATOM     21  C   UNL     1       3.064  -3.134  22.305  0.00  0.00    +0.142 C 
ATOM     22  N   UNL     1       2.916  -3.895  21.217  0.00  0.00    -0.228 NA
ATOM     23  C   UNL     1       1.861  -3.808  20.394  0.00  0.00    +0.100 C 
ATOM     24  C   UNL     1       0.865  -2.905  20.650  0.00  0.00    +0.021 C 
ATOM     25  C   UNL     1       0.955  -2.078  21.772  0.00  0.00    +0.004 C 
ATOM     26  C   UNL     1       2.059  -2.215  22.576  0.00  0.00    +0.035 C 
ATOM     27  H   UNL     1       4.781  -2.420  23.231  0.00  0.00    +0.168 HD
ENDBRANCH   1  20
BRANCH   3  28
ATOM     28  C   UNL     1       2.049  -4.283  26.727  0.00  0.00    -0.006 C 
ATOM     29  C   UNL     1       0.833  -4.746  26.943  0.00  0.00    -0.003 C 
ATOM     30  C   UNL     1       0.109  -4.518  28.204  0.00  0.00    -0.000 C 
ATOM     31  C   UNL     1       0.640  -3.855  29.184  0.00  0.00    -0.000 C 
ATOM     32  C   UNL     1       1.994  -3.331  29.042  0.00  0.00    -0.003 C 
ATOM     33  C   UNL     1       2.635  -3.355  27.724  0.00  0.00    -0.008 C 
BRANCH  33  34
ATOM     34  C   UNL     1       2.726  -1.935  27.230  0.00  0.00    +0.108 C 
ATOM     35  N   UNL     1       2.364  -1.089  28.386  0.00  0.00    -0.268 NA
ATOM     36  C   UNL     1       1.580  -0.026  27.808  0.00  0.00    +0.217 C 
ATOM     37  O   UNL     1       0.805  -0.672  26.860  0.00  0.00    -0.336 OA
ATOM     38  C   UNL     1       1.697  -1.524  26.243  0.00  0.00    +0.164 C 
ATOM     39  H   UNL     1       3.199  -0.718  28.840  0.00  0.00    +0.126 HD
ENDBRANCH  33  34
ENDBRANCH   3  28
BRANCH   4  40
ATOM     40  C   UNL     1       2.629  -7.000  25.886  0.00  0.00    +0.132 C 
ATOM     41  C   UNL     1       1.526  -7.791  26.136  0.00  0.00    +0.034 C 
ATOM     42  C   UNL     1       1.601  -8.864  27.017  0.00  0.00    +0.004 C 
ATOM     43  C   UNL     1       2.776  -9.159  27.661  0.00  0.00    +0.021 C 
ATOM     44  C   UNL     1       3.869  -8.366  27.409  0.00  0.00    +0.100 C 
ATOM     45  N   UNL     1       3.751  -7.363  26.567  0.00  0.00    -0.229 NA
ENDBRANCH   4  40
TORSDOF 6
