REMARK  Name = =
REMARK  0 active torsions:
REMARK  status: ('A' for Active; 'I' for Inactive)
REMARK                            x       y       z     vdW  Elec       q    Type
REMARK                         _______ _______ _______ _____ _____    ______ ____
ROOT
ATOM      1  C   UNL     1      -3.527  -3.258  31.315  0.00  0.00    +0.199 C 
ATOM      2  N   UNL     1      -2.763  -2.675  30.373  0.00  0.00    -0.224 NA
ATOM      3  C   UNL     1      -1.979  -3.410  29.550  0.00  0.00    +0.085 C 
ATOM      4  C   UNL     1      -1.937  -4.784  29.652  0.00  0.00    +0.037 C 
ATOM      5  C   UNL     1      -2.720  -5.371  30.614  0.00  0.00    +0.102 C 
ATOM      6  N   UNL     1      -3.489  -4.595  31.415  0.00  0.00    -0.222 NA
ATOM      7  C   UNL     1      -1.129  -5.520  28.800  0.00  0.00    +0.003 C 
ATOM      8  C   UNL     1      -0.349  -4.926  27.838  0.00  0.00    +0.000 C 
ATOM      9  C   UNL     1      -0.390  -3.551  27.738  0.00  0.00    +0.002 C 
ATOM     10  C   UNL     1      -1.200  -2.797  28.589  0.00  0.00    +0.019 C 
ENDROOT
TORSDOF 0
