REMARK  Name = =
REMARK  1 active torsions:
REMARK  status: ('A' for Active; 'I' for Inactive)
REMARK    1  A    between atoms: C_7  and  S_11
REMARK                            x       y       z     vdW  Elec       q    Type
REMARK                         _______ _______ _______ _____ _____    ______ ____
ROOT
ATOM      1  C   UNL     1      -3.569  -3.197  31.324  0.00  0.00    +0.199 C 
ATOM      2  N   UNL     1      -2.581  -2.550  30.679  0.00  0.00    -0.224 NA
ATOM      3  C   UNL     1      -1.770  -3.201  29.833  0.00  0.00    +0.085 C 
ATOM      4  C   UNL     1      -1.935  -4.559  29.606  0.00  0.00    +0.042 C 
ATOM      5  C   UNL     1      -2.956  -5.188  30.283  0.00  0.00    +0.103 C 
ATOM      6  N   UNL     1      -3.766  -4.531  31.130  0.00  0.00    -0.222 NA
ATOM      7  C   UNL     1      -1.140  -5.268  28.739  0.00  0.00    +0.021 C 
ATOM      8  C   UNL     1      -0.154  -4.494  28.104  0.00  0.00    +0.006 C 
ATOM      9  C   UNL     1       0.024  -3.163  28.309  0.00  0.00    +0.002 C 
ATOM     10  C   UNL     1      -0.789  -2.495  29.185  0.00  0.00    +0.019 C 
ENDROOT
BRANCH   7  11
ATOM     11  S   UNL     1      -1.244  -6.887  28.471  0.00  0.00    -0.142 S 
ATOM     12  C   UNL     1      -0.388  -7.883  27.350  0.00  0.00    +0.103 C 
ATOM     13  N   UNL     1       0.100  -8.916  28.240  0.00  0.00    -0.265 NA
ATOM     14  C   UNL     1      -0.665  -9.123  29.371  0.00  0.00    +0.084 C 
ATOM     15  C   UNL     1      -1.490  -8.179  29.735  0.00  0.00    +0.071 C 
ATOM     16  C   UNL     1       1.192  -9.067  27.249  0.00  0.00    +0.075 C 
ATOM     17  C   UNL     1       1.037  -7.543  27.068  0.00  0.00    +0.044 C 
ENDBRANCH   7  11
TORSDOF 1
REMARK  Name = =
REMARK  1 active torsions:
REMARK  status: ('A' for Active; 'I' for Inactive)
REMARK    1  A    between atoms: C_7  and  S_11
REMARK                            x       y       z     vdW  Elec       q    Type
REMARK                         _______ _______ _______ _____ _____    ______ ____
ROOT
ATOM      1  H   UNK     1      -2.988  -7.109  27.520  0.00  0.00    +0.000 HD
ENDROOT
TORSDOF 0
