REMARK  Name = =
REMARK  1 active torsions:
REMARK  status: ('A' for Active; 'I' for Inactive)
REMARK    1  A    between atoms: C_6  and  N_10
REMARK                            x       y       z     vdW  Elec       q    Type
REMARK                         _______ _______ _______ _____ _____    ______ ____
ROOT
ATOM      1  N   UNL     1      -9.140 -14.346  19.945  0.00  0.00    -0.333 N 
ATOM      2  C   UNL     1      -9.586 -15.297  20.909  0.00  0.00    +0.042 C 
ATOM      3  C   UNL     1      -8.831 -16.436  20.843  0.00  0.00    -0.007 C 
ATOM      4  C   UNL     1      -9.059 -17.526  21.673  0.00  0.00    -0.002 C 
ATOM      5  C   UNL     1     -10.072 -17.457  22.585  0.00  0.00    +0.015 C 
ATOM      6  C   UNL     1     -10.861 -16.318  22.684  0.00  0.00    +0.058 C 
ATOM      7  C   UNL     1     -10.612 -15.253  21.849  0.00  0.00    +0.029 C 
ATOM      8  C   UNL     1      -7.812 -16.228  19.780  0.00  0.00    +0.049 C 
ATOM      9  C   UNL     1      -8.386 -15.102  18.967  0.00  0.00    +0.092 C 
ATOM     10  H   UNL     1      -9.310 -13.376  19.944  0.00  0.00    +0.147 HD
ENDROOT
BRANCH   6  11
ATOM     11  N   UNL     1     -11.914 -16.240  23.629  0.00  0.00    -0.246 N 
ATOM     12  C   UNL     1     -12.776 -15.113  23.832  0.00  0.00    +0.092 C 
ATOM     13  C   UNL     1     -13.740 -15.583  24.885  0.00  0.00    +0.117 C 
ATOM     14  N   UNL     1     -13.299 -16.927  25.240  0.00  0.00    -0.224 NA
ATOM     15  C   UNL     1     -12.289 -17.281  24.540  0.00  0.00    +0.172 C 
ENDBRANCH   6  11
TORSDOF 1
