REMARK  Name = =
REMARK  1 active torsions:
REMARK  status: ('A' for Active; 'I' for Inactive)
REMARK    1  A    between atoms: C_6  and  N_11
REMARK                            x       y       z     vdW  Elec       q    Type
REMARK                         _______ _______ _______ _____ _____    ______ ____
ROOT
ATOM      1  N   UNL     1     -13.156 -15.305  24.376  0.00  0.00    -0.306 N 
ATOM      2  C   UNL     1     -11.966 -15.714  23.679  0.00  0.00    +0.045 C 
ATOM      3  C   UNL     1     -11.300 -16.674  24.432  0.00  0.00    -0.007 C 
ATOM      4  C   UNL     1     -10.125 -17.208  23.947  0.00  0.00    -0.002 C 
ATOM      5  C   UNL     1      -9.635 -16.781  22.730  0.00  0.00    +0.014 C 
ATOM      6  C   UNL     1     -10.263 -15.833  21.952  0.00  0.00    +0.050 C 
ATOM      7  C   UNL     1     -11.445 -15.312  22.467  0.00  0.00    +0.029 C 
ATOM      8  C   UNL     1     -12.065 -16.927  25.685  0.00  0.00    +0.049 C 
ATOM      9  C   UNL     1     -13.414 -16.307  25.393  0.00  0.00    +0.096 C 
ATOM     10  C   UNL     1     -13.878 -14.109  24.047  0.00  0.00    +0.112 C 
ENDROOT
BRANCH   6  11
ATOM     11  N   UNL     1      -9.756 -15.397  20.703  0.00  0.00    -0.291 N 
ATOM     12  C   UNL     1     -10.350 -14.445  19.796  0.00  0.00    +0.111 C 
ATOM     13  C   UNL     1      -9.641 -14.669  18.497  0.00  0.00    +0.112 C 
ATOM     14  N   UNL     1      -8.477 -15.428  18.883  0.00  0.00    -0.196 NA
ATOM     15  C   UNL     1      -8.543 -15.829  20.105  0.00  0.00    +0.183 C 
ENDBRANCH   6  11
TORSDOF 1
