REMARK  Name = =
REMARK  1 active torsions:
REMARK  status: ('A' for Active; 'I' for Inactive)
REMARK    1  A    between atoms: C_18  and  S_22
REMARK                            x       y       z     vdW  Elec       q    Type
REMARK                         _______ _______ _______ _____ _____    ______ ____
ROOT
ATOM      1  N   UNL     1      -3.830  -2.426  30.960  0.00  0.00    -0.211 N 
ATOM      2  C   UNL     1      -3.361  -1.208  30.668  0.00  0.00    +0.176 C 
ATOM      3  N   UNL     1      -4.309  -0.274  30.854  0.00  0.00    -0.209 NA
ATOM      4  C   UNL     1      -5.415  -0.905  31.276  0.00  0.00    +0.164 A 
ATOM      5  C   UNL     1      -5.109  -2.248  31.340  0.00  0.00    +0.150 A 
ATOM      6  C   UNL     1      -6.100  -3.106  31.753  0.00  0.00    +0.278 A 
ATOM      7  O   UNL     1      -5.839  -4.341  31.818  0.00  0.00    -0.266 OA
ATOM      8  N   UNL     1      -7.342  -2.694  32.094  0.00  0.00    -0.273 N 
ATOM      9  C   UNL     1      -7.613  -1.382  32.023  0.00  0.00    +0.328 A 
ATOM     10  O   UNL     1      -8.775  -0.975  32.340  0.00  0.00    -0.247 OA
ATOM     11  N   UNL     1      -6.659  -0.523  31.621  0.00  0.00    -0.291 N 
ATOM     12  C   UNL     1      -3.146  -3.689  30.895  0.00  0.00    +0.229 C 
ATOM     13  N   UNL     1      -3.172  -4.539  31.936  0.00  0.00    -0.213 NA
ATOM     14  C   UNL     1      -2.542  -5.727  31.906  0.00  0.00    +0.086 C 
ATOM     15  C   UNL     1      -1.849  -6.086  30.779  0.00  0.00    +0.042 C 
ATOM     16  C   UNL     1      -1.812  -5.233  29.705  0.00  0.00    +0.104 C 
ATOM     17  N   UNL     1      -2.463  -4.060  29.800  0.00  0.00    -0.212 NA
ATOM     18  C   UNL     1      -1.150  -7.296  30.651  0.00  0.00    +0.021 C 
ATOM     19  C   UNL     1      -1.200  -8.119  31.744  0.00  0.00    +0.006 C 
ATOM     20  C   UNL     1      -1.903  -7.772  32.911  0.00  0.00    +0.002 C 
ATOM     21  C   UNL     1      -2.569  -6.587  32.996  0.00  0.00    +0.019 C 
ATOM     22  H   UNL     1      -8.027  -3.338  32.386  0.00  0.00    +0.173 HD
ATOM     23  H   UNL     1      -6.882   0.435  31.577  0.00  0.00    +0.172 HD
ENDROOT
BRANCH  18  24
ATOM     24  S   UNL     1      -0.375  -7.645  29.232  0.00  0.00    -0.142 S 
ATOM     25  C   UNL     1      -0.709  -7.899  27.647  0.00  0.00    +0.103 C 
ATOM     26  N   UNL     1       0.609  -7.834  27.032  0.00  0.00    -0.265 NA
ATOM     27  C   UNL     1       1.419  -6.844  27.600  0.00  0.00    +0.084 C 
ATOM     28  C   UNL     1       1.158  -6.496  28.809  0.00  0.00    +0.071 C 
ATOM     29  C   UNL     1       0.213  -8.928  26.148  0.00  0.00    +0.075 C 
ATOM     30  C   UNL     1      -0.943  -9.271  27.069  0.00  0.00    +0.044 C 
ENDBRANCH  18  24
TORSDOF 1
REMARK  Name = =
REMARK  1 active torsions:
REMARK  status: ('A' for Active; 'I' for Inactive)
REMARK    1  A    between atoms: C_18  and  S_22
REMARK                            x       y       z     vdW  Elec       q    Type
REMARK                         _______ _______ _______ _____ _____    ______ ____
ROOT
ATOM      1  H   UNK     1       0.867  -9.130  29.715  0.00  0.00    +0.000 HD
ENDROOT
TORSDOF 0
