REMARK  Name = =
REMARK  2 active torsions:
REMARK  status: ('A' for Active; 'I' for Inactive)
REMARK    1  A    between atoms: C_6  and  N_19
REMARK    2  A    between atoms: C_7  and  C_11
REMARK                            x       y       z     vdW  Elec       q    Type
REMARK                         _______ _______ _______ _____ _____    ______ ____
ROOT
ATOM      1  N   UNL     1      -9.882 -15.254  19.924  0.00  0.00    -0.306 N 
ATOM      2  C   UNL     1     -10.026 -16.152  21.031  0.00  0.00    +0.045 C 
ATOM      3  C   UNL     1      -8.783 -16.726  21.224  0.00  0.00    -0.007 C 
ATOM      4  C   UNL     1      -8.591 -17.542  22.309  0.00  0.00    -0.002 C 
ATOM      5  C   UNL     1      -9.632 -17.757  23.155  0.00  0.00    +0.014 C 
ATOM      6  C   UNL     1     -10.905 -17.167  22.946  0.00  0.00    +0.050 C 
ATOM      7  C   UNL     1     -11.110 -16.360  21.879  0.00  0.00    +0.030 C 
ATOM      8  C   UNL     1      -7.870 -16.305  20.102  0.00  0.00    +0.049 C 
ATOM      9  C   UNL     1      -8.917 -15.916  19.034  0.00  0.00    +0.096 C 
ATOM     10  C   UNL     1     -10.515 -13.969  19.772  0.00  0.00    +0.112 C 
ENDROOT
BRANCH   7  11
ATOM     11  C   UNL     1     -12.439 -15.877  21.541  0.00  0.00    +0.044 C 
ATOM     12  C   UNL     1     -12.940 -14.761  22.047  0.00  0.00    +0.045 C 
ATOM     13  C   UNL     1     -14.270 -14.280  21.722  0.00  0.00    +0.196 C 
ATOM     14  O   UNL     1     -14.722 -13.200  22.217  0.00  0.00    -0.287 OA
ATOM     15  C   UNL     1     -15.133 -15.030  20.810  0.00  0.00    +0.045 C 
ATOM     16  C   UNL     1     -14.654 -16.161  20.296  0.00  0.00    +0.045 C 
ATOM     17  C   UNL     1     -13.321 -16.620  20.634  0.00  0.00    +0.196 C 
ATOM     18  O   UNL     1     -12.939 -17.688  20.129  0.00  0.00    -0.287 OA
ENDBRANCH   7  11
BRANCH   6  19
ATOM     19  N   UNL     1     -11.903 -17.517  23.873  0.00  0.00    -0.291 N 
ATOM     20  C   UNL     1     -12.790 -18.644  23.874  0.00  0.00    +0.111 C 
ATOM     21  C   UNL     1     -13.942 -18.134  24.731  0.00  0.00    +0.112 C 
ATOM     22  N   UNL     1     -13.298 -17.115  25.524  0.00  0.00    -0.196 NA
ATOM     23  C   UNL     1     -12.167 -16.777  25.043  0.00  0.00    +0.183 C 
ENDBRANCH   6  19
TORSDOF 2
