REMARK  Name = =
REMARK  4 active torsions:
REMARK  status: ('A' for Active; 'I' for Inactive)
REMARK    1  A    between atoms: C_18  and  S_22
REMARK    2  A    between atoms: S_22  and  C_29
REMARK    3  A    between atoms: C_31  and  O_36
REMARK    4  A    between atoms: C_32  and  O_35
REMARK                            x       y       z     vdW  Elec       q    Type
REMARK                         _______ _______ _______ _____ _____    ______ ____
ROOT
ATOM      1  N   UNL     1      -4.003  -2.161  30.911  0.00  0.00    -0.211 N 
ATOM      2  C   UNL     1      -3.621  -0.913  30.648  0.00  0.00    +0.176 C 
ATOM      3  N   UNL     1      -4.624  -0.069  30.960  0.00  0.00    -0.209 NA
ATOM      4  C   UNL     1      -5.661  -0.778  31.427  0.00  0.00    +0.164 A 
ATOM      5  C   UNL     1      -5.251  -2.112  31.391  0.00  0.00    +0.150 A 
ATOM      6  C   UNL     1      -6.162  -3.064  31.833  0.00  0.00    +0.278 A 
ATOM      7  O   UNL     1      -5.843  -4.288  31.821  0.00  0.00    -0.266 OA
ATOM      8  N   UNL     1      -7.378  -2.696  32.271  0.00  0.00    -0.273 N 
ATOM      9  C   UNL     1      -7.714  -1.389  32.280  0.00  0.00    +0.328 A 
ATOM     10  O   UNL     1      -8.840  -1.064  32.687  0.00  0.00    -0.247 OA
ATOM     11  N   UNL     1      -6.864  -0.436  31.863  0.00  0.00    -0.291 N 
ATOM     12  C   UNL     1      -3.225  -3.330  30.717  0.00  0.00    +0.229 C 
ATOM     13  N   UNL     1      -3.168  -4.254  31.686  0.00  0.00    -0.213 NA
ATOM     14  C   UNL     1      -2.445  -5.381  31.554  0.00  0.00    +0.086 C 
ATOM     15  C   UNL     1      -1.754  -5.542  30.352  0.00  0.00    +0.042 C 
ATOM     16  C   UNL     1      -1.815  -4.592  29.363  0.00  0.00    +0.104 C 
ATOM     17  N   UNL     1      -2.556  -3.494  29.563  0.00  0.00    -0.212 NA
ATOM     18  C   UNL     1      -1.005  -6.684  30.172  0.00  0.00    +0.017 C 
ATOM     19  C   UNL     1      -0.954  -7.639  31.169  0.00  0.00    +0.005 C 
ATOM     20  C   UNL     1      -1.646  -7.454  32.343  0.00  0.00    +0.002 C 
ATOM     21  C   UNL     1      -2.399  -6.329  32.555  0.00  0.00    +0.019 C 
ATOM     22  H   UNL     1      -8.019  -3.375  32.583  0.00  0.00    +0.173 HD
ATOM     23  H   UNL     1      -7.134   0.511  31.881  0.00  0.00    +0.172 HD
ENDROOT
BRANCH  18  24
ATOM     24  S   UNL     1      -0.036  -6.915  28.647  0.00  0.00    -0.152 S 
ATOM     25  C   UNL     1       0.863  -8.561  28.756  0.00  0.00    +0.099 C 
ATOM     26  N   UNL     1       0.761  -8.898  27.363  0.00  0.00    -0.265 NA
ATOM     27  C   UNL     1      -0.445  -8.561  26.754  0.00  0.00    +0.084 C 
ATOM     28  C   UNL     1      -1.076  -7.547  27.238  0.00  0.00    +0.066 C 
ATOM     29  C   UNL     1       2.130  -9.439  27.479  0.00  0.00    +0.075 C 
ATOM     30  C   UNL     1       2.316  -8.396  28.591  0.00  0.00    +0.044 C 
BRANCH  24  31
ATOM     31  C   UNL     1       0.986  -5.547  28.181  0.00  0.00    +0.017 C 
ATOM     32  C   UNL     1       0.831  -4.944  26.960  0.00  0.00    +0.045 C 
ATOM     33  C   UNL     1       1.619  -3.873  26.607  0.00  0.00    +0.168 C 
ATOM     34  C   UNL     1       2.566  -3.381  27.449  0.00  0.00    +0.168 C 
ATOM     35  C   UNL     1       2.720  -3.997  28.689  0.00  0.00    +0.040 C 
ATOM     36  C   UNL     1       1.944  -5.065  29.054  0.00  0.00    +0.008 C 
BRANCH  34  37
ATOM     37  O   UNL     1       3.381  -2.284  27.100  0.00  0.00    -0.503 OA
ATOM     38  H   UNL     1       3.277  -1.870  26.266  0.00  0.00    +0.292 HD
ENDBRANCH  34  37
BRANCH  33  39
ATOM     39  O   UNL     1       1.450  -3.271  25.363  0.00  0.00    -0.503 OA
ATOM     40  H   UNL     1       0.802  -3.596  24.769  0.00  0.00    +0.292 HD
ENDBRANCH  33  39
ENDBRANCH  24  31
ENDBRANCH  18  24
TORSDOF 4
