REMARK  Name = =
REMARK  5 active torsions:
REMARK  status: ('A' for Active; 'I' for Inactive)
REMARK    1  A    between atoms: N_1  and  C_23
REMARK    2  A    between atoms: C_6  and  N_18
REMARK    3  A    between atoms: C_7  and  C_10
REMARK    4  A    between atoms: C_23  and  N_24
REMARK    5  A    between atoms: C_25  and  O_27
REMARK                            x       y       z     vdW  Elec       q    Type
REMARK                         _______ _______ _______ _____ _____    ______ ____
ROOT
ATOM      1  N   UNL     1     -12.378 -16.148  23.504  0.00  0.00    -0.291 N 
ATOM      2  C   UNL     1     -11.140 -16.701  23.028  0.00  0.00    +0.046 C 
ATOM      3  C   UNL     1     -10.516 -17.357  24.054  0.00  0.00    -0.007 C 
ATOM      4  C   UNL     1      -9.360 -18.058  23.809  0.00  0.00    -0.002 C 
ATOM      5  C   UNL     1      -8.830 -18.100  22.549  0.00  0.00    +0.014 C 
ATOM      6  C   UNL     1      -9.469 -17.421  21.491  0.00  0.00    +0.050 C 
ATOM      7  C   UNL     1     -10.624 -16.730  21.762  0.00  0.00    +0.030 C 
ATOM      8  C   UNL     1     -11.290 -17.121  25.320  0.00  0.00    +0.049 C 
ATOM      9  C   UNL     1     -12.033 -15.833  24.913  0.00  0.00    +0.097 C 
ENDROOT
BRANCH   7  10
ATOM     10  C   UNL     1     -11.221 -15.900  20.742  0.00  0.00    +0.044 C 
ATOM     11  C   UNL     1     -10.967 -14.605  20.697  0.00  0.00    +0.045 C 
ATOM     12  C   UNL     1     -11.533 -13.700  19.711  0.00  0.00    +0.196 C 
ATOM     13  O   UNL     1     -11.279 -12.465  19.672  0.00  0.00    -0.287 OA
ATOM     14  C   UNL     1     -12.439 -14.245  18.716  0.00  0.00    +0.045 C 
ATOM     15  C   UNL     1     -12.734 -15.532  18.721  0.00  0.00    +0.045 C 
ATOM     16  C   UNL     1     -12.133 -16.423  19.744  0.00  0.00    +0.196 C 
ATOM     17  O   UNL     1     -12.480 -17.630  19.674  0.00  0.00    -0.287 OA
ENDBRANCH   7  10
BRANCH   6  18
ATOM     18  N   UNL     1      -8.776 -17.426  20.258  0.00  0.00    -0.291 N 
ATOM     19  C   UNL     1      -8.901 -18.391  19.204  0.00  0.00    +0.111 C 
ATOM     20  C   UNL     1      -7.678 -18.150  18.364  0.00  0.00    +0.112 C 
ATOM     21  N   UNL     1      -7.157 -16.903  18.829  0.00  0.00    -0.196 NA
ATOM     22  C   UNL     1      -7.769 -16.512  19.876  0.00  0.00    +0.183 C 
ENDBRANCH   6  18
BRANCH   1  23
ATOM     23  C   UNL     1     -13.646 -15.983  22.927  0.00  0.00    +0.190 C 
BRANCH  23  24
ATOM     24  N   UNL     1     -14.640 -15.847  24.001  0.00  0.00    -0.253 N 
ATOM     25  C   UNL     1     -15.719 -14.969  23.817  0.00  0.00    +0.400 C 
ATOM     26  O   UNL     1     -15.903 -14.285  22.783  0.00  0.00    -0.227 OA
ATOM     27  H   UNL     1     -14.550 -16.363  24.835  0.00  0.00    +0.154 HD
BRANCH  25  28
ATOM     28  O   UNL     1     -16.690 -14.801  24.818  0.00  0.00    -0.466 OA
ATOM     29  H   UNL     1     -16.622 -15.278  25.621  0.00  0.00    +0.297 HD
ENDBRANCH  25  28
ENDBRANCH  23  24
ENDBRANCH   1  23
TORSDOF 5
