REMARK  Name = =
REMARK  5 active torsions:
REMARK  status: ('A' for Active; 'I' for Inactive)
REMARK    1  A    between atoms: N_11  and  N_22
REMARK    2  A    between atoms: C_18  and  S_29
REMARK    3  A    between atoms: S_29  and  C_36
REMARK    4  A    between atoms: C_38  and  O_43
REMARK    5  A    between atoms: C_39  and  O_42
REMARK                            x       y       z     vdW  Elec       q    Type
REMARK                         _______ _______ _______ _____ _____    ______ ____
ROOT
ATOM      1  N   UNL     1      -1.624  -2.605  29.132  0.00  0.00    -0.211 N 
ATOM      2  C   UNL     1      -2.299  -1.423  28.968  0.00  0.00    +0.176 C 
ATOM      3  N   UNL     1      -3.321  -1.370  29.795  0.00  0.00    -0.207 NA
ATOM      4  C   UNL     1      -3.390  -2.472  30.534  0.00  0.00    +0.184 A 
ATOM      5  C   UNL     1      -2.299  -3.247  30.097  0.00  0.00    +0.152 A 
ATOM      6  C   UNL     1      -2.111  -4.469  30.712  0.00  0.00    +0.278 A 
ATOM      7  O   UNL     1      -1.153  -5.200  30.360  0.00  0.00    -0.266 OA
ATOM      8  N   UNL     1      -2.964  -4.862  31.687  0.00  0.00    -0.272 N 
ATOM      9  C   UNL     1      -3.986  -4.083  32.062  0.00  0.00    +0.348 A 
ATOM     10  O   UNL     1      -4.751  -4.484  32.967  0.00  0.00    -0.245 OA
ATOM     11  N   UNL     1      -4.221  -2.862  31.490  0.00  0.00    -0.192 N 
ATOM     12  C   UNL     1      -0.466  -3.004  28.412  0.00  0.00    +0.229 C 
ATOM     13  N   UNL     1       0.288  -1.997  27.884  0.00  0.00    -0.213 NA
ATOM     14  C   UNL     1       1.415  -2.205  27.177  0.00  0.00    +0.086 C 
ATOM     15  C   UNL     1       1.801  -3.538  26.995  0.00  0.00    +0.042 C 
ATOM     16  C   UNL     1       1.053  -4.561  27.520  0.00  0.00    +0.104 C 
ATOM     17  N   UNL     1      -0.058  -4.247  28.211  0.00  0.00    -0.212 NA
ATOM     18  C   UNL     1       2.947  -3.774  26.289  0.00  0.00    +0.017 C 
ATOM     19  C   UNL     1       3.682  -2.737  25.785  0.00  0.00    +0.005 C 
ATOM     20  C   UNL     1       3.276  -1.427  25.981  0.00  0.00    +0.002 C 
ATOM     21  C   UNL     1       2.146  -1.145  26.673  0.00  0.00    +0.019 C 
ATOM     22  H   UNL     1      -2.831  -5.733  32.126  0.00  0.00    +0.174 HD
ENDROOT
BRANCH  11  23
ATOM     23  N   UNL     1      -5.337  -2.147  31.958  0.00  0.00    -0.242 N 
ATOM     24  C   UNL     1      -6.578  -2.481  31.360  0.00  0.00    +0.128 C 
ATOM     25  C   UNL     1      -7.756  -2.519  32.324  0.00  0.00    +0.112 C 
ATOM     26  N   UNL     1      -8.132  -1.275  32.884  0.00  0.00    -0.216 NA
ATOM     27  C   UNL     1      -6.991  -0.438  33.233  0.00  0.00    +0.091 C 
ATOM     28  C   UNL     1      -6.336   0.051  31.956  0.00  0.00    +0.042 C 
ATOM     29  C   UNL     1      -5.069  -0.706  31.720  0.00  0.00    +0.111 C 
ENDBRANCH  11  23
BRANCH  18  30
ATOM     30  S   UNL     1       3.471  -5.513  25.970  0.00  0.00    -0.152 S 
ATOM     31  C   UNL     1       5.365  -5.547  26.011  0.00  0.00    +0.099 C 
ATOM     32  N   UNL     1       5.496  -6.855  26.638  0.00  0.00    -0.265 NA
ATOM     33  C   UNL     1       4.503  -7.153  27.550  0.00  0.00    +0.084 C 
ATOM     34  C   UNL     1       3.343  -6.582  27.423  0.00  0.00    +0.066 C 
ATOM     35  C   UNL     1       6.706  -6.990  25.799  0.00  0.00    +0.075 C 
ATOM     36  C   UNL     1       5.892  -6.177  24.773  0.00  0.00    +0.044 C 
BRANCH  30  37
ATOM     37  C   UNL     1       2.770  -6.190  24.515  0.00  0.00    +0.017 C 
ATOM     38  C   UNL     1       2.620  -5.393  23.382  0.00  0.00    +0.045 C 
ATOM     39  C   UNL     1       2.125  -5.835  22.195  0.00  0.00    +0.168 C 
ATOM     40  C   UNL     1       1.739  -7.162  22.092  0.00  0.00    +0.168 C 
ATOM     41  C   UNL     1       1.873  -7.978  23.194  0.00  0.00    +0.040 C 
ATOM     42  C   UNL     1       2.388  -7.490  24.401  0.00  0.00    +0.008 C 
BRANCH  40  43
ATOM     43  O   UNL     1       1.227  -7.634  20.882  0.00  0.00    -0.503 OA
ATOM     44  H   UNL     1       1.148  -7.055  20.149  0.00  0.00    +0.292 HD
ENDBRANCH  40  43
BRANCH  39  45
ATOM     45  O   UNL     1       1.993  -5.001  21.086  0.00  0.00    -0.503 OA
ATOM     46  H   UNL     1       2.250  -4.102  21.143  0.00  0.00    +0.292 HD
ENDBRANCH  39  45
ENDBRANCH  30  37
ENDBRANCH  18  30
TORSDOF 5
