REMARK  Name = =
REMARK  0 active torsions:
REMARK  status: ('A' for Active; 'I' for Inactive)
REMARK                            x       y       z     vdW  Elec       q    Type
REMARK                         _______ _______ _______ _____ _____    ______ ____
ROOT
ATOM      1  N   UNL     1      51.485 155.864  28.384  0.00  0.00    -0.291 NA
ATOM      2  C   UNL     1      50.780 155.762  29.641  0.00  0.00    +0.116 C 
ATOM      3  C   UNL     1      50.326 157.111  30.053  0.00  0.00    +0.084 C 
ATOM      4  N   UNL     1      51.177 158.191  29.813  0.00  0.00    -0.271 NA
ATOM      5  C   UNL     1      52.413 157.993  29.189  0.00  0.00    +0.142 C 
ATOM      6  C   UNL     1      52.664 156.684  28.543  0.00  0.00    +0.095 C 
ATOM      7  H   UNL     1      51.761 154.932  28.075  0.00  0.00    +0.124 HD
ENDROOT
TORSDOF 0
