REMARK  Name = =
REMARK  4 active torsions:
REMARK  status: ('A' for Active; 'I' for Inactive)
REMARK    1  A    between atoms: C_1  and  C_16
REMARK    2  A    between atoms: C_8  and  C_17
REMARK    3  A    between atoms: C_18  and  C_19
REMARK    4  A    between atoms: C_19  and  O_21
REMARK                            x       y       z     vdW  Elec       q    Type
REMARK                         _______ _______ _______ _____ _____    ______ ____
ROOT
ATOM      1  C   UNL     1      52.852 154.994  26.547  0.00  0.00    +0.014 C 
ATOM      2  C   UNL     1      53.565 156.163  26.380  0.00  0.00    +0.096 C 
ATOM      3  N   UNL     1      53.344 157.239  27.152  0.00  0.00    -0.243 NA
ATOM      4  C   UNL     1      52.421 157.245  28.129  0.00  0.00    +0.099 C 
ATOM      5  C   UNL     1      51.676 156.107  28.343  0.00  0.00    +0.099 C 
ATOM      6  N   UNL     1      50.757 156.115  29.316  0.00  0.00    -0.242 NA
ATOM      7  C   UNL     1      50.526 157.201  30.104  0.00  0.00    +0.099 C 
ATOM      8  C   UNL     1      51.250 158.359  29.920  0.00  0.00    +0.021 C 
ATOM      9  C   UNL     1      52.197 158.355  28.921  0.00  0.00    +0.022 C 
ATOM     10  C   UNL     1      51.904 154.993  27.545  0.00  0.00    +0.019 C 
ENDROOT
BRANCH   1  16
ATOM     11  N   UNL     1      54.547 153.783  25.412  0.00  0.00    -0.293 NA
ATOM     12  C   UNL     1      54.745 152.684  24.463  0.00  0.00    +0.088 C 
ATOM     13  C   UNL     1      54.480 151.401  25.205  0.00  0.00    +0.106 C 
ATOM     14  N   UNL     1      53.183 151.358  25.796  0.00  0.00    -0.215 NA
ATOM     15  C   UNL     1      52.788 152.561  26.471  0.00  0.00    +0.109 C 
ATOM     16  C   UNL     1      53.105 153.808  25.686  0.00  0.00    +0.096 C 
ATOM     17  H   UNL     1      55.070 153.611  26.271  0.00  0.00    +0.124 HD
ENDBRANCH   1  16
BRANCH   8  18
ATOM     18  C   UNL     1      51.043 159.546  30.733  0.00  0.00    +0.008 C 
ATOM     19  C   UNL     1      50.137 159.660  31.659  0.00  0.00    +0.082 C 
BRANCH  19  20
ATOM     20  C   UNL     1      49.987 160.884  32.436  0.00  0.00    +0.338 C 
ATOM     21  O   UNL     1      49.116 161.042  33.322  0.00  0.00    -0.245 OA
BRANCH  20  22
ATOM     22  O   UNL     1      50.842 161.927  32.192  0.00  0.00    -0.477 OA
ATOM     23  H   UNL     1      51.506 161.845  31.536  0.00  0.00    +0.295 HD
ENDBRANCH  20  22
ENDBRANCH  19  20
ENDBRANCH   8  18
TORSDOF 4
