REMARK  Name = =
REMARK  5 active torsions:
REMARK  status: ('A' for Active; 'I' for Inactive)
REMARK    1  A    between atoms: C_1  and  C_16
REMARK    2  A    between atoms: C_8  and  C_20
REMARK    3  A    between atoms: C_17  and  O_19
REMARK    4  A    between atoms: C_21  and  C_22
REMARK    5  A    between atoms: C_22  and  O_24
REMARK                            x       y       z     vdW  Elec       q    Type
REMARK                         _______ _______ _______ _____ _____    ______ ____
ROOT
ATOM      1  C   UNL     1      53.146 155.699  26.241  0.00  0.00    +0.018 C 
ATOM      2  C   UNL     1      52.479 154.670  26.896  0.00  0.00    +0.096 C 
ATOM      3  N   UNL     1      51.684 154.902  27.935  0.00  0.00    -0.243 NA
ATOM      4  C   UNL     1      51.464 156.132  28.430  0.00  0.00    +0.099 C 
ATOM      5  C   UNL     1      52.099 157.192  27.821  0.00  0.00    +0.099 C 
ATOM      6  N   UNL     1      51.883 158.411  28.307  0.00  0.00    -0.242 NA
ATOM      7  C   UNL     1      51.073 158.683  29.371  0.00  0.00    +0.099 C 
ATOM      8  C   UNL     1      50.418 157.681  30.018  0.00  0.00    +0.021 C 
ATOM      9  C   UNL     1      50.645 156.371  29.502  0.00  0.00    +0.022 C 
ATOM     10  C   UNL     1      52.940 156.971  26.725  0.00  0.00    +0.020 C 
ENDROOT
BRANCH   1  16
ATOM     11  N   UNL     1      54.507 154.232  24.802  0.00  0.00    -0.241 N 
ATOM     12  C   UNL     1      55.011 154.101  23.425  0.00  0.00    +0.116 C 
ATOM     13  C   UNL     1      55.612 155.448  23.016  0.00  0.00    +0.110 C 
ATOM     14  N   UNL     1      56.156 156.134  24.167  0.00  0.00    -0.214 NA
ATOM     15  C   UNL     1      55.192 156.471  25.173  0.00  0.00    +0.113 C 
ATOM     16  C   UNL     1      54.022 155.521  25.115  0.00  0.00    +0.120 C 
ATOM     17  C   UNL     1      54.583 153.089  25.575  0.00  0.00    +0.402 C 
ATOM     18  O   UNL     1      55.053 152.026  25.115  0.00  0.00    -0.226 OA
BRANCH  17  19
ATOM     19  O   UNL     1      54.147 153.027  26.915  0.00  0.00    -0.466 OA
ATOM     20  H   UNL     1      53.783 153.787  27.325  0.00  0.00    +0.297 HD
ENDBRANCH  17  19
ENDBRANCH   1  16
BRANCH   8  21
ATOM     21  C   UNL     1      49.585 157.808  31.186  0.00  0.00    +0.008 C 
ATOM     22  C   UNL     1      49.337 158.747  31.989  0.00  0.00    +0.082 C 
BRANCH  22  23
ATOM     23  C   UNL     1      49.679 160.095  32.229  0.00  0.00    +0.338 C 
ATOM     24  O   UNL     1      49.120 160.748  33.223  0.00  0.00    -0.245 OA
BRANCH  23  25
ATOM     25  O   UNL     1      50.561 160.888  31.554  0.00  0.00    -0.477 OA
ATOM     26  H   UNL     1      51.031 160.546  30.819  0.00  0.00    +0.295 HD
ENDBRANCH  23  25
ENDBRANCH  22  23
ENDBRANCH   8  21
TORSDOF 5
