REMARK  Name = =
REMARK  7 active torsions:
REMARK  status: ('A' for Active; 'I' for Inactive)
REMARK    1  A    between atoms: C_6  and  C_9
REMARK    2  A    between atoms: C_7  and  O_24
REMARK    3  A    between atoms: C_16  and  C_19
REMARK    4  A    between atoms: C_20  and  C_21
REMARK    5  A    between atoms: C_21  and  O_23
REMARK    6  A    between atoms: O_24  and  C_25
REMARK    7  A    between atoms: C_28  and  O_30
REMARK                            x       y       z     vdW  Elec       q    Type
REMARK                         _______ _______ _______ _____ _____    ______ ____
ROOT
ATOM      1  N   UNL     1      49.772 159.904  30.911  0.00  0.00    -0.241 N 
ATOM      2  C   UNL     1      49.003 161.109  31.144  0.00  0.00    +0.116 C 
ATOM      3  C   UNL     1      47.787 160.591  31.950  0.00  0.00    +0.110 C 
ATOM      4  N   UNL     1      48.215 159.492  32.789  0.00  0.00    -0.214 NA
ATOM      5  C   UNL     1      48.485 158.266  32.021  0.00  0.00    +0.113 C 
ATOM      6  C   UNL     1      49.000 158.725  30.670  0.00  0.00    +0.120 C 
ATOM      7  C   UNL     1      51.163 159.942  30.947  0.00  0.00    +0.413 C 
ATOM      8  O   UNL     1      51.938 158.943  30.774  0.00  0.00    -0.226 OA
ENDROOT
BRANCH   6   9
ATOM      9  C   UNL     1      49.756 157.718  29.933  0.00  0.00    +0.018 C 
ATOM     10  C   UNL     1      49.402 156.380  29.890  0.00  0.00    +0.096 C 
ATOM     11  N   UNL     1      50.131 155.507  29.175  0.00  0.00    -0.243 NA
ATOM     12  C   UNL     1      51.223 155.896  28.481  0.00  0.00    +0.099 C 
ATOM     13  C   UNL     1      51.611 157.203  28.494  0.00  0.00    +0.099 C 
ATOM     14  N   UNL     1      52.711 157.615  27.799  0.00  0.00    -0.242 NA
ATOM     15  C   UNL     1      53.396 156.694  27.104  0.00  0.00    +0.099 C 
ATOM     16  C   UNL     1      53.059 155.362  27.049  0.00  0.00    +0.021 C 
ATOM     17  C   UNL     1      51.960 154.972  27.749  0.00  0.00    +0.022 C 
ATOM     18  C   UNL     1      50.869 158.111  29.226  0.00  0.00    +0.020 C 
BRANCH  16  19
ATOM     19  C   UNL     1      53.880 154.447  26.260  0.00  0.00    +0.008 C 
ATOM     20  C   UNL     1      53.420 153.425  25.593  0.00  0.00    +0.082 C 
BRANCH  20  21
ATOM     21  C   UNL     1      54.305 152.560  24.830  0.00  0.00    +0.338 C 
ATOM     22  O   UNL     1      53.886 151.838  23.890  0.00  0.00    -0.245 OA
BRANCH  21  23
ATOM     23  O   UNL     1      55.660 152.507  25.121  0.00  0.00    -0.477 OA
ATOM     24  H   UNL     1      56.011 153.030  25.815  0.00  0.00    +0.295 HD
ENDBRANCH  21  23
ENDBRANCH  20  21
ENDBRANCH  16  19
ENDBRANCH   6   9
BRANCH   7  25
ATOM     25  O   UNL     1      51.877 161.136  31.188  0.00  0.00    -0.363 OA
BRANCH  25  26
ATOM     26  C   UNL     1      53.239 161.228  31.127  0.00  0.00    +0.418 C 
ATOM     27  O   UNL     1      53.867 160.461  30.353  0.00  0.00    -0.225 OA
ATOM     28  N   UNL     1      53.956 162.167  31.915  0.00  0.00    -0.187 N 
ATOM     29  C   UNL     1      55.375 162.274  31.863  0.00  0.00    +0.407 C 
ATOM     30  O   UNL     1      56.020 161.526  31.104  0.00  0.00    -0.226 OA
ATOM     31  H   UNL     1      53.455 162.764  32.517  0.00  0.00    +0.164 HD
BRANCH  29  32
ATOM     32  O   UNL     1      56.027 163.218  32.663  0.00  0.00    -0.466 OA
ATOM     33  H   UNL     1      55.530 163.775  33.230  0.00  0.00    +0.297 HD
ENDBRANCH  29  32
ENDBRANCH  25  26
ENDBRANCH   7  25
TORSDOF 7
