MODEL 1
REMARK VINA RESULT:    -6.083      0.000      0.000
REMARK INTER + INTRA:         -12.348
REMARK INTER:                  -9.284
REMARK INTRA:                  -3.064
REMARK UNBOUND:                -3.064
REMARK  Name = =
REMARK  10 active torsions:
REMARK  status: ('A' for Active; 'I' for Inactive)
REMARK    1  A    between atoms: N_1  and  N_11
REMARK    2  A    between atoms: N_1  and  O_27
REMARK    3  A    between atoms: C_2  and  C_4
REMARK    4  A    between atoms: C_7  and  O_10
REMARK    5  A    between atoms: N_11  and  C_12
REMARK    6  A    between atoms: C_13  and  S_18
REMARK    7  A    between atoms: S_18  and  N_19
REMARK    8  A    between atoms: S_18  and  S_25
REMARK    9  A    between atoms: S_25  and  S_26
REMARK   10  A    between atoms: O_27  and  C_28
REMARK                            x       y       z     vdW  Elec       q    Type
REMARK                         _______ _______ _______ _____ _____    ______ ____
ROOT
ATOM      1  N   UNL     1      60.662 163.654  39.144  0.00  0.00    -0.042 N 
ATOM      2  C   UNL     1      62.030 163.494  39.427  0.00  0.00    +0.299 C 
ATOM      3  O   UNL     1      62.884 164.292  38.855  0.00  0.00    -0.265 OA
ENDROOT
BRANCH   2   4
ATOM      4  C   UNL     1      62.637 162.520  40.307  0.00  0.00    +0.058 C 
ATOM      5  C   UNL     1      63.002 161.258  39.837  0.00  0.00    +0.008 C 
ATOM      6  C   UNL     1      63.574 160.299  40.635  0.00  0.00    +0.037 C 
ATOM      7  C   UNL     1      63.819 160.546  41.961  0.00  0.00    +0.134 C 
ATOM      8  C   UNL     1      63.481 161.762  42.466  0.00  0.00    +0.037 C 
ATOM      9  C   UNL     1      62.894 162.738  41.640  0.00  0.00    +0.008 C 
BRANCH   7  10
ATOM     10  O   UNL     1      64.401 159.579  42.788  0.00  0.00    -0.506 OA
ATOM     11  H   UNL     1      63.858 158.977  43.256  0.00  0.00    +0.292 HD
ENDBRANCH   7  10
ENDBRANCH   2   4
BRANCH   1  12
ATOM     12  N   UNL     1      60.271 164.651  38.249  0.00  0.00    -0.227 N 
ATOM     13  H   UNL     1      60.279 164.473  37.281  0.00  0.00    +0.173 HD
BRANCH  12  14
ATOM     14  C   UNL     1      59.862 165.916  38.733  0.00  0.00    +0.070 C 
ATOM     15  C   UNL     1      60.397 167.101  38.215  0.00  0.00    +0.045 C 
ATOM     16  C   UNL     1      59.974 168.327  38.687  0.00  0.00    +0.008 C 
ATOM     17  C   UNL     1      59.020 168.366  39.670  0.00  0.00    +0.001 C 
ATOM     18  C   UNL     1      58.485 167.199  40.188  0.00  0.00    +0.001 C 
ATOM     19  C   UNL     1      58.903 165.975  39.723  0.00  0.00    +0.016 C 
BRANCH  15  20
ATOM     20  S   UNL     1      61.601 166.998  37.004  0.00  0.00    -0.091 S 
ATOM     21  H   UNL     1      62.244 165.831  36.732  0.00  0.00    +0.117 HD
BRANCH  20  22
ATOM     22  N   UNL     1      60.805 167.339  35.572  0.00  0.00    -0.233 N 
ATOM     23  C   UNL     1      60.712 168.588  34.873  0.00  0.00    +0.131 C 
ATOM     24  C   UNL     1      59.906 168.322  33.680  0.00  0.00    +0.001 C 
ATOM     25  C   UNL     1      59.558 167.060  33.672  0.00  0.00    +0.056 C 
ATOM     26  C   UNL     1      60.086 166.374  34.833  0.00  0.00    +0.258 C 
ATOM     27  O   UNL     1      59.941 165.139  35.143  0.00  0.00    -0.269 OA
ENDBRANCH  20  22
BRANCH  20  28
ATOM     28  S   UNL     1      62.744 168.062  37.600  0.00  0.00    -0.029 S 
BRANCH  28  29
ATOM     29  S   UNL     1      63.769 167.880  39.231  0.00  0.00    -0.099 S 
ATOM     30  H   UNL     1      63.016 167.251  40.172  0.00  0.00    +0.115 HD
ENDBRANCH  28  29
ENDBRANCH  20  28
ENDBRANCH  15  20
ENDBRANCH  12  14
ENDBRANCH   1  12
BRANCH   1  31
ATOM     31  O   UNL     1      59.691 162.894  39.685  0.00  0.00    -0.363 OA
BRANCH  31  32
ATOM     32  C   UNL     1      59.420 161.579  39.297  0.00  0.00    +0.172 C 
ATOM     33  C   UNL     1      59.422 160.577  40.256  0.00  0.00    +0.037 C 
ATOM     34  C   UNL     1      59.168 159.252  39.981  0.00  0.00    +0.003 C 
ATOM     35  C   UNL     1      58.894 158.907  38.659  0.00  0.00    +0.000 C 
ATOM     36  C   UNL     1      58.885 159.882  37.687  0.00  0.00    +0.003 C 
ATOM     37  C   UNL     1      59.146 161.202  38.008  0.00  0.00    +0.040 C 
ATOM     38  C   UNL     1      59.176 158.270  40.958  0.00  0.00    +0.000 C 
ATOM     39  C   UNL     1      59.446 158.605  42.266  0.00  0.00    +0.000 C 
ATOM     40  C   UNL     1      59.702 159.927  42.556  0.00  0.00    +0.000 C 
ATOM     41  C   UNL     1      59.694 160.902  41.583  0.00  0.00    +0.003 C 
ENDBRANCH  31  32
ENDBRANCH   1  31
TORSDOF 10
ENDMDL
