REMARK  Name = =
REMARK  8 active torsions:
REMARK  status: ('A' for Active; 'I' for Inactive)
REMARK    1  A    between atoms: C_1  and  C_10
REMARK    2  A    between atoms: C_1  and  S_25
REMARK    3  A    between atoms: C_4  and  C_15
REMARK    4  A    between atoms: C_5  and  S_18
REMARK    5  A    between atoms: C_15  and  O_17
REMARK    6  A    between atoms: S_18  and  N_19
REMARK    7  A    between atoms: S_25  and  S_26
REMARK    8  A    between atoms: S_26  and  S_27
REMARK                            x       y       z     vdW  Elec       q    Type
REMARK                         _______ _______ _______ _____ _____    ______ ____
ROOT
ATOM      1  C   UNL     1     -11.517  -1.334  30.331  0.00  0.00    +0.151 C 
ATOM      2  C   UNL     1     -12.325  -0.072  30.223  0.00  0.00    +0.104 C 
ATOM      3  N   UNL     1     -13.441  -0.825  29.604  0.00  0.00    -0.252 N 
ATOM      4  C   UNL     1     -14.237   0.221  29.009  0.00  0.00    +0.133 C 
ATOM      5  C   UNL     1     -13.480   1.227  28.664  0.00  0.00    +0.043 C 
ATOM      6  C   UNL     1     -12.054   0.828  29.054  0.00  0.00    +0.057 C 
ATOM      7  C   UNL     1     -12.854  -2.002  30.083  0.00  0.00    +0.242 C 
ATOM      8  O   UNL     1     -13.304  -3.186  30.240  0.00  0.00    -0.274 OA
ENDROOT
BRANCH   1  10
ATOM      9  N   UNL     1     -10.337  -2.973  31.709  0.00  0.00    -0.293 NA
ATOM     10  C   UNL     1     -11.067  -1.733  31.715  0.00  0.00    +0.104 C 
ATOM     11  C   UNL     1     -12.327  -1.912  32.525  0.00  0.00    +0.159 C 
ATOM     12  O   UNL     1     -12.190  -2.605  33.693  0.00  0.00    -0.351 OA
ATOM     13  C   UNL     1     -10.905  -2.889  34.088  0.00  0.00    +0.159 C 
ATOM     14  C   UNL     1     -10.124  -3.566  32.981  0.00  0.00    +0.101 C 
ATOM     15  H   UNL     1      -9.425  -2.798  31.288  0.00  0.00    +0.123 HD
ENDBRANCH   1  10
BRANCH   4  16
ATOM     16  C   UNL     1     -15.676   0.061  28.849  0.00  0.00    +0.352 C 
ATOM     17  O   UNL     1     -16.258  -1.023  29.188  0.00  0.00    -0.244 OA
BRANCH  16  18
ATOM     18  O   UNL     1     -16.461   1.040  28.341  0.00  0.00    -0.476 OA
ATOM     19  H   UNL     1     -16.082   1.855  28.077  0.00  0.00    +0.295 HD
ENDBRANCH  16  18
ENDBRANCH   4  16
BRANCH   5  20
ATOM     20  S   UNL     1     -13.744   2.767  27.923  0.00  0.00    -0.015 S 
BRANCH  20  21
ATOM     21  N   UNL     1     -14.718   3.986  28.566  0.00  0.00    -0.189 N 
ATOM     22  C   UNL     1     -15.663   4.724  27.910  0.00  0.00    +0.097 C 
ATOM     23  C   UNL     1     -16.266   5.579  28.787  0.00  0.00    +0.083 C 
ATOM     24  N   UNL     1     -15.681   5.358  29.990  0.00  0.00    -0.265 N 
ATOM     25  C   UNL     1     -14.762   4.414  29.865  0.00  0.00    +0.321 C 
ATOM     26  O   UNL     1     -14.044   3.985  30.810  0.00  0.00    -0.251 OA
ATOM     27  H   UNL     1     -15.905   5.827  30.826  0.00  0.00    +0.157 HD
ENDBRANCH  20  21
ENDBRANCH   5  20
BRANCH   1  28
ATOM     28  S   UNL     1     -10.290  -1.644  29.092  0.00  0.00    -0.062 S 
BRANCH  28  29
ATOM     29  S   UNL     1     -11.026  -2.213  27.226  0.00  0.00    -0.026 S 
BRANCH  29  30
ATOM     30  S   UNL     1     -10.715  -0.764  25.718  0.00  0.00    -0.099 S 
ATOM     31  H   UNL     1     -11.224  -1.218  24.541  0.00  0.00    +0.115 HD
ENDBRANCH  29  30
ENDBRANCH  28  29
ENDBRANCH   1  28
TORSDOF 8
