MODEL 1
REMARK VINA RESULT:   -11.200      0.000      0.000
REMARK INTER + INTRA:         -13.431
REMARK INTER:                 -13.164
REMARK INTRA:                  -0.267
REMARK UNBOUND:                -0.267
REMARK  Name = =
REMARK  3 active torsions:
REMARK  status: ('A' for Active; 'I' for Inactive)
REMARK    1  A    between atoms: N_1  and  N_35
REMARK    2  A    between atoms: C_12  and  C_16
REMARK    3  A    between atoms: C_16  and  C_21
REMARK                            x       y       z     vdW  Elec       q    Type
REMARK                         _______ _______ _______ _____ _____    ______ ____
ROOT
ATOM      1  N   UNL     1     -23.443 -44.431  21.986  0.00  0.00    -0.165 N 
ATOM      2  C   UNL     1     -24.714 -43.780  21.986  0.00  0.00    +0.326 C 
ATOM      3  O   UNL     1     -24.653 -42.499  21.814  0.00  0.00    -0.251 OA
ATOM      4  N   UNL     1     -25.978 -44.331  22.141  0.00  0.00    -0.258 N 
ATOM      5  C   UNL     1     -27.158 -43.446  22.214  0.00  0.00    +0.127 C 
ATOM      6  C   UNL     1     -28.066 -43.799  21.074  0.00  0.00    +0.164 C 
ATOM      7  O   UNL     1     -27.563 -44.873  20.348  0.00  0.00    -0.350 OA
ATOM      8  C   UNL     1     -27.518 -45.971  21.242  0.00  0.00    +0.164 C 
ATOM      9  C   UNL     1     -26.323 -45.749  22.182  0.00  0.00    +0.127 C 
ATOM     10  C   UNL     1     -22.367 -43.651  21.478  0.00  0.00    +0.171 C 
ATOM     11  N   UNL     1     -21.701 -42.706  22.179  0.00  0.00    -0.227 NA
ATOM     12  C   UNL     1     -20.740 -41.965  21.621  0.00  0.00    +0.110 C 
ATOM     13  C   UNL     1     -20.457 -42.211  20.293  0.00  0.00    +0.117 C 
ATOM     14  N   UNL     1     -21.101 -43.139  19.588  0.00  0.00    -0.238 NA
ATOM     15  C   UNL     1     -22.064 -43.883  20.138  0.00  0.00    +0.135 C 
ENDROOT
BRANCH  12  16
ATOM     16  C   UNL     1     -19.994 -40.876  22.292  0.00  0.00    +0.144 C 
ATOM     17  N   UNL     1     -18.768 -40.571  21.634  0.00  0.00    -0.279 NA
ATOM     18  C   UNL     1     -18.499 -39.173  21.794  0.00  0.00    +0.087 C 
ATOM     19  C   UNL     1     -19.902 -38.609  21.593  0.00  0.00    +0.087 C 
ATOM     20  N   UNL     1     -20.790 -39.663  21.955  0.00  0.00    -0.279 NA
ATOM     21  H   UNL     1     -18.847 -40.794  20.642  0.00  0.00    +0.125 HD
ATOM     22  H   UNL     1     -21.342 -39.381  22.765  0.00  0.00    +0.125 HD
BRANCH  16  23
ATOM     23  C   UNL     1     -19.958 -40.915  23.750  0.00  0.00    +0.010 C 
ATOM     24  C   UNL     1     -18.831 -41.412  24.431  0.00  0.00    -0.001 C 
ATOM     25  C   UNL     1     -18.777 -41.351  25.807  0.00  0.00    -0.000 C 
ATOM     26  C   UNL     1     -19.862 -40.792  26.525  0.00  0.00    -0.000 C 
ATOM     27  C   UNL     1     -20.969 -40.305  25.887  0.00  0.00    -0.000 C 
ATOM     28  C   UNL     1     -21.007 -40.371  24.506  0.00  0.00    -0.001 C 
ATOM     29  C   UNL     1     -17.623 -41.807  26.604  0.00  0.00    -0.000 C 
ATOM     30  C   UNL     1     -16.540 -42.315  25.756  0.00  0.00    -0.000 C 
ATOM     31  C   UNL     1     -16.608 -42.434  24.404  0.00  0.00    -0.000 C 
ATOM     32  C   UNL     1     -17.807 -42.044  23.626  0.00  0.00    -0.000 C 
ATOM     33  C   UNL     1     -15.506 -42.938  23.696  0.00  0.00    -0.000 C 
ATOM     34  C   UNL     1     -14.385 -43.300  24.373  0.00  0.00    -0.000 C 
ATOM     35  C   UNL     1     -14.320 -43.175  25.760  0.00  0.00    +0.000 C 
ATOM     36  C   UNL     1     -15.384 -42.687  26.452  0.00  0.00    -0.000 C 
ENDBRANCH  16  23
ENDBRANCH  12  16
BRANCH   1  37
ATOM     37  N   UNL     1     -23.274 -45.681  22.482  0.00  0.00    -0.193 NA
ATOM     38  C   UNL     1     -22.912 -46.744  21.590  0.00  0.00    +0.111 C 
ATOM     39  C   UNL     1     -23.336 -48.033  22.282  0.00  0.00    +0.108 C 
ATOM     40  N   UNL     1     -22.462 -48.207  23.422  0.00  0.00    -0.215 NA
ATOM     41  C   UNL     1     -22.745 -47.141  24.363  0.00  0.00    +0.108 C 
ATOM     42  C   UNL     1     -22.528 -45.781  23.730  0.00  0.00    +0.111 C 
ENDBRANCH   1  37
TORSDOF 3
ENDMDL
