REMARK  Name = =
REMARK  2 active torsions:
REMARK  status: ('A' for Active; 'I' for Inactive)
REMARK    1  A    between atoms: C_1  and  C_15
REMARK    2  A    between atoms: C_15  and  C_20
REMARK                            x       y       z     vdW  Elec       q    Type
REMARK                         _______ _______ _______ _____ _____    ______ ____
ROOT
ATOM      1  C   UNL     1     -11.833 -44.030  29.429  0.00  0.00    +0.039 C 
ATOM      2  C   UNL     1     -11.885 -43.486  28.141  0.00  0.00    +0.020 C 
ATOM      3  C   UNL     1     -13.061 -43.164  27.510  0.00  0.00    +0.081 C 
ATOM      4  N   UNL     1     -13.019 -42.645  26.271  0.00  0.00    -0.244 NA
ATOM      5  C   UNL     1     -14.178 -42.327  25.644  0.00  0.00    +0.099 C 
ATOM      6  C   UNL     1     -15.372 -42.552  26.312  0.00  0.00    +0.099 C 
ATOM      7  N   UNL     1     -16.528 -42.251  25.730  0.00  0.00    -0.242 NA
ATOM      8  C   UNL     1     -16.547 -41.734  24.503  0.00  0.00    +0.099 C 
ATOM      9  C   UNL     1     -15.392 -41.490  23.794  0.00  0.00    +0.022 C 
ATOM     10  C   UNL     1     -14.184 -41.793  24.377  0.00  0.00    +0.022 C 
ATOM     11  C   UNL     1     -15.430 -43.084  27.583  0.00  0.00    +0.022 C 
ATOM     12  C   UNL     1     -14.229 -43.401  28.204  0.00  0.00    +0.019 C 
ATOM     13  C   UNL     1     -14.196 -43.938  29.474  0.00  0.00    +0.001 C 
ATOM     14  C   UNL     1     -13.000 -44.262  30.111  0.00  0.00    +0.001 C 
ENDROOT
BRANCH   1  15
ATOM     15  C   UNL     1     -10.517 -44.364  30.053  0.00  0.00    +0.278 C 
ATOM     16  O   UNL     1      -9.743 -44.950  29.062  0.00  0.00    -0.322 OA
ATOM     17  C   UNL     1      -9.650 -46.306  29.365  0.00  0.00    +0.177 C 
ATOM     18  C   UNL     1      -9.630 -46.226  30.897  0.00  0.00    +0.177 C 
ATOM     19  O   UNL     1     -10.676 -45.300  31.080  0.00  0.00    -0.322 OA
BRANCH  15  20
ATOM     20  C   UNL     1      -9.848 -43.193  30.666  0.00  0.00    +0.275 C 
ATOM     21  O   UNL     1      -8.943 -42.633  29.959  0.00  0.00    -0.270 OA
ATOM     22  N   UNL     1     -10.122 -42.661  31.940  0.00  0.00    -0.325 N 
ATOM     23  H   UNL     1     -10.814 -43.072  32.507  0.00  0.00    +0.145 HD
ATOM     24  H   UNL     1      -9.621 -41.878  32.264  0.00  0.00    +0.145 HD
ENDBRANCH  15  20
ENDBRANCH   1  15
TORSDOF 2
