MODEL 1
REMARK VINA RESULT:    -6.727      0.000      0.000
REMARK INTER + INTRA:          -7.657
REMARK INTER:                  -7.514
REMARK INTRA:                  -0.143
REMARK UNBOUND:                -0.143
REMARK  Name = =
REMARK  2 active torsions:
REMARK  status: ('A' for Active; 'I' for Inactive)
REMARK    1  A    between atoms: N_1  and  N_10
REMARK    2  A    between atoms: N_1  and  C_24
REMARK                            x       y       z     vdW  Elec       q    Type
REMARK                         _______ _______ _______ _____ _____    ______ ____
ROOT
ATOM      1  N   UNL     1      59.924 162.050  38.829  0.00  0.00    -0.151 N 
ATOM      2  C   UNL     1      61.142 161.493  39.210  0.00  0.00    +0.329 C 
ATOM      3  O   UNL     1      61.809 160.962  38.236  0.00  0.00    -0.250 OA
ATOM      4  N   UNL     1      61.738 161.425  40.476  0.00  0.00    -0.257 N 
ATOM      5  C   UNL     1      63.058 160.768  40.584  0.00  0.00    +0.127 C 
ATOM      6  C   UNL     1      63.079 160.058  41.897  0.00  0.00    +0.164 C 
ATOM      7  O   UNL     1      63.012 160.897  43.000  0.00  0.00    -0.350 OA
ATOM      8  C   UNL     1      62.470 162.120  42.624  0.00  0.00    +0.164 C 
ATOM      9  C   UNL     1      61.235 161.914  41.715  0.00  0.00    +0.127 C 
ENDROOT
BRANCH   1  10
ATOM     10  N   UNL     1      59.514 162.025  37.500  0.00  0.00    -0.149 N 
ATOM     11  C   UNL     1      59.838 163.014  36.627  0.00  0.00    +0.352 A 
ATOM     12  O   UNL     1      60.524 163.977  37.024  0.00  0.00    -0.245 OA
ATOM     13  N   UNL     1      59.465 163.025  35.341  0.00  0.00    -0.259 N 
ATOM     14  C   UNL     1      58.729 162.006  34.881  0.00  0.00    +0.332 A 
ATOM     15  O   UNL     1      58.338 161.950  33.671  0.00  0.00    -0.247 OA
ATOM     16  N   UNL     1      58.377 161.001  35.694  0.00  0.00    -0.259 N 
ATOM     17  C   UNL     1      58.775 161.023  36.998  0.00  0.00    +0.352 A 
ATOM     18  O   UNL     1      58.415 160.047  37.725  0.00  0.00    -0.245 OA
ATOM     19  H   UNL     1      59.726 163.766  34.747  0.00  0.00    +0.175 HD
ATOM     20  H   UNL     1      57.835 160.254  35.353  0.00  0.00    +0.175 HD
ENDBRANCH   1  10
BRANCH   1  26
ATOM     21  C   UNL     1      56.961 160.346  41.533  0.00  0.00    +0.180 C 
ATOM     22  O   UNL     1      56.614 161.526  42.026  0.00  0.00    -0.450 OA
ATOM     23  C   UNL     1      57.335 162.477  41.426  0.00  0.00    +0.147 C 
ATOM     24  C   UNL     1      58.179 161.872  40.510  0.00  0.00    +0.053 C 
ATOM     25  C   UNL     1      57.931 160.532  40.590  0.00  0.00    +0.045 C 
ATOM     26  C   UNL     1      59.049 162.661  39.743  0.00  0.00    +0.080 C 
ATOM     27  C   UNL     1      59.017 164.037  39.945  0.00  0.00    +0.017 C 
ATOM     28  C   UNL     1      58.184 164.642  40.850  0.00  0.00    +0.004 C 
ATOM     29  C   UNL     1      57.348 163.831  41.581  0.00  0.00    +0.038 C 
ENDBRANCH   1  26
TORSDOF 2
ENDMDL
