MODEL 1
REMARK VINA RESULT:    -5.839      0.000      0.000
REMARK INTER + INTRA:         -11.643
REMARK INTER:                  -9.252
REMARK INTRA:                  -2.391
REMARK UNBOUND:                -2.391
REMARK  Name = =
REMARK  12 active torsions:
REMARK  status: ('A' for Active; 'I' for Inactive)
REMARK    1  A    between atoms: N_1  and  N_23
REMARK    2  A    between atoms: N_1  and  O_38
REMARK    3  A    between atoms: N_4  and  C_5
REMARK    4  A    between atoms: C_5  and  C_11
REMARK    5  A    between atoms: C_11  and  O_17
REMARK    6  A    between atoms: O_17  and  P_18
REMARK    7  A    between atoms: P_18  and  O_20
REMARK    8  A    between atoms: P_18  and  O_21
REMARK    9  A    between atoms: C_22  and  O_27
REMARK   10  A    between atoms: O_27  and  C_29
REMARK   11  A    between atoms: C_28  and  C_35
REMARK   12  A    between atoms: C_30  and  O_37
REMARK                            x       y       z     vdW  Elec       q    Type
REMARK                         _______ _______ _______ _____ _____    ______ ____
ROOT
ATOM      1  N   UNL     1      63.245 164.280  39.110  0.00  0.00    -0.067 N 
ATOM      2  C   UNL     1      62.567 163.047  39.190  0.00  0.00    +0.345 C 
ATOM      3  O   UNL     1      62.335 162.388  38.157  0.00  0.00    -0.249 OA
ATOM      4  N   UNL     1      62.144 162.560  40.461  0.00  0.00    -0.275 N 
ATOM      5  H   UNL     1      62.328 163.108  41.257  0.00  0.00    +0.152 HD
ENDROOT
BRANCH   4   6
ATOM      6  C   UNL     1      61.446 161.277  40.642  0.00  0.00    +0.127 C 
ATOM      7  N   UNL     1      62.346 160.274  40.112  0.00  0.00    -0.283 NA
ATOM      8  C   UNL     1      63.694 160.312  40.591  0.00  0.00    +0.070 C 
ATOM      9  C   UNL     1      63.666 160.060  42.089  0.00  0.00    +0.017 C 
ATOM     10  C   UNL     1      62.783 161.175  42.657  0.00  0.00    +0.005 C 
ATOM     11  C   UNL     1      61.349 160.979  42.124  0.00  0.00    +0.036 C 
ATOM     12  H   UNL     1      61.960 159.359  40.343  0.00  0.00    +0.125 HD
BRANCH   6  13
ATOM     13  C   UNL     1      60.173 161.174  39.875  0.00  0.00    +0.138 C 
ATOM     14  C   UNL     1      60.117 160.155  38.776  0.00  0.00    +0.095 C 
ATOM     15  C   UNL     1      58.606 159.910  38.772  0.00  0.00    +0.153 C 
ATOM     16  O   UNL     1      57.888 159.871  37.793  0.00  0.00    -0.296 OA
ATOM     17  C   UNL     1      58.366 159.758  40.221  0.00  0.00    +0.067 C 
ATOM     18  C   UNL     1      59.236 160.457  40.888  0.00  0.00    +0.039 C 
BRANCH  13  19
ATOM     19  O   UNL     1      59.489 162.292  39.652  0.00  0.00    -0.275 OA
BRANCH  19  20
ATOM     20  P   UNL     1      58.916 163.404  40.611  0.00  0.00    +0.473 P 
ATOM     21  O   UNL     1      59.629 163.807  41.869  0.00  0.00    -0.228 OA
BRANCH  20  22
ATOM     22  O   UNL     1      58.748 164.901  39.729  0.00  0.00    -0.303 OA
ATOM     23  H   UNL     1      57.823 165.017  39.462  0.00  0.00    +0.222 HD
ENDBRANCH  20  22
BRANCH  20  24
ATOM     24  O   UNL     1      57.299 163.058  41.062  0.00  0.00    -0.303 OA
ATOM     25  H   UNL     1      57.152 163.335  41.980  0.00  0.00    +0.222 HD
ENDBRANCH  20  24
ENDBRANCH  19  20
ENDBRANCH  13  19
ENDBRANCH   6  13
ENDBRANCH   4   6
BRANCH   1  27
ATOM     26  C   UNL     1      62.908 165.459  36.967  0.00  0.00    +0.241 C 
ATOM     27  N   UNL     1      63.602 164.782  37.862  0.00  0.00    -0.137 N 
ATOM     28  C   UNL     1      64.874 164.548  37.362  0.00  0.00    +0.190 C 
ATOM     29  N   UNL     1      64.984 165.076  36.143  0.00  0.00    -0.220 NA
ATOM     30  C   UNL     1      63.793 165.635  35.892  0.00  0.00    +0.156 C 
BRANCH  26  31
ATOM     31  O   UNL     1      61.608 165.918  37.034  0.00  0.00    -0.433 OA
BRANCH  31  33
ATOM     32  C   UNL     1      60.043 165.736  35.289  0.00  0.00    +0.091 C 
ATOM     33  C   UNL     1      60.931 166.552  35.997  0.00  0.00    +0.185 C 
ATOM     34  C   UNL     1      61.111 167.859  35.676  0.00  0.00    +0.169 C 
ATOM     35  C   UNL     1      60.388 168.408  34.591  0.00  0.00    +0.040 C 
ATOM     36  C   UNL     1      59.524 167.605  33.896  0.00  0.00    +0.003 C 
ATOM     37  C   UNL     1      59.352 166.289  34.238  0.00  0.00    +0.008 C 
BRANCH  32  39
ATOM     38  N   UNL     1      59.653 163.923  37.006  0.00  0.00    -0.325 N 
ATOM     39  C   UNL     1      59.748 164.384  35.684  0.00  0.00    +0.246 C 
ATOM     40  O   UNL     1      59.542 163.500  34.779  0.00  0.00    -0.270 OA
ATOM     41  H   UNL     1      59.799 164.545  37.755  0.00  0.00    +0.145 HD
ATOM     42  H   UNL     1      59.440 162.979  37.184  0.00  0.00    +0.145 HD
ENDBRANCH  32  39
BRANCH  34  43
ATOM     43  O   UNL     1      61.957 168.746  36.325  0.00  0.00    -0.503 OA
ATOM     44  H   UNL     1      61.609 169.355  36.946  0.00  0.00    +0.292 HD
ENDBRANCH  34  43
ENDBRANCH  31  33
ENDBRANCH  26  31
ENDBRANCH   1  27
BRANCH   1  45
ATOM     45  O   UNL     1      63.539 164.967  40.209  0.00  0.00    -0.273 OA
ATOM     46  H   UNL     1      64.497 164.946  40.357  0.00  0.00    +0.244 HD
ENDBRANCH   1  45
TORSDOF 12
ENDMDL
