REMARK  Name = =
REMARK  2 active torsions:
REMARK  status: ('A' for Active; 'I' for Inactive)
REMARK    1  A    between atoms: N_1  and  N_10
REMARK    2  A    between atoms: N_1  and  C_24
REMARK                            x       y       z     vdW  Elec       q    Type
REMARK                         _______ _______ _______ _____ _____    ______ ____
ROOT
ATOM      1  N   UNL     1      50.535 158.391  29.951  0.00  0.00    -0.151 N 
ATOM      2  C   UNL     1      50.267 157.082  29.557  0.00  0.00    +0.329 C 
ATOM      3  O   UNL     1      49.024 156.741  29.667  0.00  0.00    -0.250 OA
ATOM      4  N   UNL     1      51.137 156.099  29.067  0.00  0.00    -0.257 N 
ATOM      5  C   UNL     1      50.564 154.781  28.720  0.00  0.00    +0.127 C 
ATOM      6  C   UNL     1      51.591 153.758  29.079  0.00  0.00    +0.164 C 
ATOM      7  O   UNL     1      52.761 153.840  28.337  0.00  0.00    -0.350 OA
ATOM      8  C   UNL     1      52.881 155.114  27.795  0.00  0.00    +0.164 C 
ATOM      9  C   UNL     1      52.541 156.192  28.851  0.00  0.00    +0.127 C 
ENDROOT
BRANCH   1  10
ATOM     10  N   UNL     1      49.515 159.222  30.402  0.00  0.00    -0.149 N 
ATOM     11  C   UNL     1      48.990 159.107  31.649  0.00  0.00    +0.352 A 
ATOM     12  O   UNL     1      49.432 158.230  32.418  0.00  0.00    -0.245 OA
ATOM     13  N   UNL     1      48.010 159.888  32.121  0.00  0.00    -0.259 N 
ATOM     14  C   UNL     1      47.513 160.840  31.322  0.00  0.00    +0.332 A 
ATOM     15  O   UNL     1      46.580 161.619  31.703  0.00  0.00    -0.247 OA
ATOM     16  N   UNL     1      47.989 161.003  30.081  0.00  0.00    -0.259 N 
ATOM     17  C   UNL     1      48.988 160.189  29.634  0.00  0.00    +0.352 A 
ATOM     18  O   UNL     1      49.403 160.385  28.451  0.00  0.00    -0.245 OA
ATOM     19  H   UNL     1      47.663 159.765  33.034  0.00  0.00    +0.175 HD
ATOM     20  H   UNL     1      47.621 161.704  29.496  0.00  0.00    +0.175 HD
ENDBRANCH   1  10
BRANCH   1  26
ATOM     21  C   UNL     1      52.132 162.042  31.719  0.00  0.00    +0.180 C 
ATOM     22  O   UNL     1      53.357 161.821  31.265  0.00  0.00    -0.450 OA
ATOM     23  C   UNL     1      53.365 160.680  30.570  0.00  0.00    +0.147 C 
ATOM     24  C   UNL     1      52.085 160.152  30.585  0.00  0.00    +0.053 C 
ATOM     25  C   UNL     1      51.322 161.020  31.311  0.00  0.00    +0.045 C 
ATOM     26  C   UNL     1      51.826 158.944  29.920  0.00  0.00    +0.080 C 
ATOM     27  C   UNL     1      52.890 158.328  29.267  0.00  0.00    +0.017 C 
ATOM     28  C   UNL     1      54.159 158.846  29.249  0.00  0.00    +0.004 C 
ATOM     29  C   UNL     1      54.367 160.032  29.913  0.00  0.00    +0.038 C 
ENDBRANCH   1  26
TORSDOF 2
