REMARK  Name = =
REMARK  11 active torsions:
REMARK  status: ('A' for Active; 'I' for Inactive)
REMARK    1  A    between atoms: N_1  and  O_20
REMARK    2  A    between atoms: C_3  and  C_26
REMARK    3  A    between atoms: S_7  and  P_8
REMARK    4  A    between atoms: S_7  and  C_32
REMARK    5  A    between atoms: P_8  and  O_10
REMARK    6  A    between atoms: P_8  and  O_11
REMARK    7  A    between atoms: O_20  and  C_21
REMARK    8  A    between atoms: C_21  and  C_22
REMARK    9  A    between atoms: C_22  and  C_23
REMARK   10  A    between atoms: N_28  and  C_29
REMARK   11  A    between atoms: C_29  and  N_31
REMARK                            x       y       z     vdW  Elec       q    Type
REMARK                         _______ _______ _______ _____ _____    ______ ____
ROOT
ATOM      1  N   UNL     1      52.066 151.676  28.061  0.00  0.00    -0.164 NA
ATOM      2  C   UNL     1      51.977 152.814  27.194  0.00  0.00    +0.025 C 
ATOM      3  C   UNL     1      52.785 152.705  25.938  0.00  0.00    +0.193 C 
ATOM      4  O   UNL     1      53.233 151.433  25.654  0.00  0.00    -0.350 OA
ATOM      5  C   UNL     1      52.328 150.432  25.949  0.00  0.00    +0.031 C 
ATOM      6  C   UNL     1      52.109 150.407  27.426  0.00  0.00    +0.128 C 
ATOM      7  C   UNL     1      52.075 152.451  28.068  0.00  0.00    +0.101 C 
ATOM      8  C   UNL     1      52.390 152.059  26.653  0.00  0.00    +0.064 C 
ATOM      9  C   UNL     1      52.616 150.816  26.283  0.00  0.00    +0.113 C 
ENDROOT
BRANCH   3  10
ATOM     10  C   UNL     1      52.354 153.067  25.603  0.00  0.00    +0.255 C 
ATOM     11  O   UNL     1      51.610 154.063  25.717  0.00  0.00    -0.272 OA
ATOM     12  N   UNL     1      53.133 152.992  24.420  0.00  0.00    -0.266 N 
ATOM     13  H   UNL     1      53.737 152.232  24.259  0.00  0.00    +0.157 HD
BRANCH  12  14
ATOM     14  C   UNL     1      53.016 154.051  23.469  0.00  0.00    +0.134 C 
ATOM     15  S   UNL     1      52.132 155.382  23.747  0.00  0.00    -0.019 S 
BRANCH  14  16
ATOM     16  N   UNL     1      53.697 153.947  22.224  0.00  0.00    -0.340 N 
ATOM     17  H   UNL     1      53.624 154.671  21.561  0.00  0.00    +0.144 HD
ATOM     18  H   UNL     1      54.242 153.151  22.026  0.00  0.00    +0.144 HD
ENDBRANCH  14  16
ENDBRANCH  12  14
ENDBRANCH   3  10
BRANCH   1  19
ATOM     19  O   UNL     1      52.698 151.613  28.935  0.00  0.00    -0.282 OA
BRANCH  19  20
ATOM     20  C   UNL     1      52.002 150.503  29.270  0.00  0.00    +0.166 C 
BRANCH  20  21
ATOM     21  C   UNL     1      50.754 150.541  28.410  0.00  0.00    +0.030 C 
ATOM     22  C   UNL     1      50.604 152.092  28.321  0.00  0.00    +0.008 C 
ENDBRANCH  20  21
ENDBRANCH  19  20
ENDBRANCH   1  19
TORSDOF 6
REMARK  Name = =
REMARK  11 active torsions:
REMARK  status: ('A' for Active; 'I' for Inactive)
REMARK    1  A    between atoms: N_1  and  O_20
REMARK    2  A    between atoms: C_3  and  C_26
REMARK    3  A    between atoms: S_7  and  P_8
REMARK    4  A    between atoms: S_7  and  C_32
REMARK    5  A    between atoms: P_8  and  O_10
REMARK    6  A    between atoms: P_8  and  O_11
REMARK    7  A    between atoms: O_20  and  C_21
REMARK    8  A    between atoms: C_21  and  C_22
REMARK    9  A    between atoms: C_22  and  C_23
REMARK   10  A    between atoms: N_28  and  C_29
REMARK   11  A    between atoms: C_29  and  N_31
REMARK                            x       y       z     vdW  Elec       q    Type
REMARK                         _______ _______ _______ _____ _____    ______ ____
ROOT
ATOM      1  S   UNL     1      52.641 154.180  28.208  0.00  0.00    +0.021 S 
ENDROOT
BRANCH   1   2
ATOM      2  C   UNL     1      54.252 154.061  26.706  0.00  0.00    +0.138 C 
ATOM      3  N   UNL     1      54.688 154.537  25.612  0.00  0.00    -0.257 NA
ATOM      4  C   UNL     1      55.634 153.951  24.824  0.00  0.00    +0.139 C 
ATOM      5  C   UNL     1      56.525 153.018  25.657  0.00  0.00    +0.090 C 
ATOM      6  S   UNL     1      55.283 152.615  26.924  0.00  0.00    -0.087 S 
ENDBRANCH   1   2
BRANCH   1   7
ATOM      7  P   UNL     1      51.123 155.356  29.050  0.00  0.00    +0.393 P 
ATOM      8  O   UNL     1      50.983 155.152  30.536  0.00  0.00    -0.246 OA
BRANCH   7   9
ATOM      9  O   UNL     1      49.635 155.128  28.306  0.00  0.00    -0.316 OA
ATOM     10  H   UNL     1      49.353 154.207  28.423  0.00  0.00    +0.221 HD
ENDBRANCH   7   9
BRANCH   7  11
ATOM     11  O   UNL     1      51.596 156.977  28.831  0.00  0.00    -0.316 OA
ATOM     12  H   UNL     1      52.455 157.123  29.256  0.00  0.00    +0.221 HD
ENDBRANCH   7  11
ENDBRANCH   1   7
TORSDOF 4
REMARK  Name = =
REMARK  11 active torsions:
REMARK  status: ('A' for Active; 'I' for Inactive)
REMARK    1  A    between atoms: N_1  and  O_20
REMARK    2  A    between atoms: C_3  and  C_26
REMARK    3  A    between atoms: S_7  and  P_8
REMARK    4  A    between atoms: S_7  and  C_32
REMARK    5  A    between atoms: P_8  and  O_10
REMARK    6  A    between atoms: P_8  and  O_11
REMARK    7  A    between atoms: O_20  and  C_21
REMARK    8  A    between atoms: C_21  and  C_22
REMARK    9  A    between atoms: C_22  and  C_23
REMARK   10  A    between atoms: N_28  and  C_29
REMARK   11  A    between atoms: C_29  and  N_31
REMARK                            x       y       z     vdW  Elec       q    Type
REMARK                         _______ _______ _______ _____ _____    ______ ____
ROOT
ATOM      1  C   UNL     1      49.935 160.677  31.070  0.00  0.00    +0.000 C 
ATOM      2  C   UNL     1      50.007 160.261  29.616  0.00  0.00    +0.000 C 
ATOM      3  C   UNL     1      50.251 158.758  29.504  0.00  0.00    +0.000 C 
ATOM      4  C   UNL     1      49.124 158.044  30.187  0.00  0.00    +0.000 C 
ATOM      5  C   UNL     1      47.790 158.445  29.579  0.00  0.00    +0.000 C 
ATOM      6  C   UNL     1      47.564 159.926  29.599  0.00  0.00    +0.000 C 
ATOM      7  C   UNL     1      48.730 160.653  28.942  0.00  0.00    +0.000 C 
ENDROOT
TORSDOF 0
