REMARK  Name = =
REMARK  4 active torsions:
REMARK  status: ('A' for Active; 'I' for Inactive)
REMARK    1  A    between atoms: C_4  and  O_20
REMARK    2  A    between atoms: C_6  and  O_19
REMARK    3  A    between atoms: C_11  and  C_12
REMARK    4  A    between atoms: C_15  and  O_18
REMARK                            x       y       z     vdW  Elec       q    Type
REMARK                         _______ _______ _______ _____ _____    ______ ____
ROOT
ATOM      1  O   UNL     1     -12.560 -42.694  28.575  0.00  0.00    -0.453 OA
ATOM      2  C   UNL     1     -12.031 -43.016  29.719  0.00  0.00    +0.154 C 
ATOM      3  C   UNL     1     -12.214 -44.242  30.323  0.00  0.00    +0.107 C 
ATOM      4  C   UNL     1     -11.628 -44.523  31.532  0.00  0.00    +0.143 C 
ATOM      5  C   UNL     1     -10.849 -43.603  32.169  0.00  0.00    +0.073 C 
ATOM      6  C   UNL     1     -10.662 -42.369  31.566  0.00  0.00    +0.140 C 
ATOM      7  C   UNL     1     -11.237 -42.057  30.353  0.00  0.00    +0.074 C 
ATOM      8  C   UNL     1     -13.006 -45.139  29.645  0.00  0.00    +0.205 C 
ATOM      9  O   UNL     1     -13.199 -46.266  30.158  0.00  0.00    -0.286 OA
ATOM     10  C   UNL     1     -13.550 -44.748  28.426  0.00  0.00    +0.080 C 
ATOM     11  C   UNL     1     -13.335 -43.522  27.875  0.00  0.00    +0.148 C 
ENDROOT
BRANCH  11  12
ATOM     12  C   UNL     1     -13.899 -43.097  26.598  0.00  0.00    +0.035 C 
ATOM     13  C   UNL     1     -13.931 -43.908  25.491  0.00  0.00    +0.006 C 
ATOM     14  C   UNL     1     -14.459 -43.530  24.271  0.00  0.00    +0.037 C 
ATOM     15  C   UNL     1     -14.983 -42.264  24.159  0.00  0.00    +0.134 C 
ATOM     16  C   UNL     1     -14.965 -41.429  25.254  0.00  0.00    +0.037 C 
ATOM     17  C   UNL     1     -14.435 -41.822  26.461  0.00  0.00    +0.006 C 
BRANCH  15  18
ATOM     18  O   UNL     1     -15.512 -41.891  22.933  0.00  0.00    -0.506 OA
ATOM     19  H   UNL     1     -15.502 -42.494  22.216  0.00  0.00    +0.292 HD
ENDBRANCH  15  18
ENDBRANCH  11  12
BRANCH   6  20
ATOM     20  O   UNL     1      -9.859 -41.450  32.246  0.00  0.00    -0.505 OA
ATOM     21  H   UNL     1      -9.477 -41.681  33.070  0.00  0.00    +0.292 HD
ENDBRANCH   6  20
BRANCH   4  22
ATOM     22  O   UNL     1     -11.868 -45.792  32.072  0.00  0.00    -0.505 OA
ATOM     23  H   UNL     1     -12.408 -46.403  31.611  0.00  0.00    +0.292 HD
ENDBRANCH   4  22
TORSDOF 4
