REMARK  Name = =
REMARK  9 active torsions:
REMARK  status: ('A' for Active; 'I' for Inactive)
REMARK    1  A    between atoms: C_4  and  O_36
REMARK    2  A    between atoms: C_6  and  O_35
REMARK    3  A    between atoms: C_10  and  N_29
REMARK    4  A    between atoms: C_11  and  C_12
REMARK    5  A    between atoms: C_14  and  N_18
REMARK    6  A    between atoms: C_15  and  O_28
REMARK    7  A    between atoms: N_18  and  C_19
REMARK    8  A    between atoms: C_22  and  C_25
REMARK    9  A    between atoms: C_25  and  O_27
REMARK                            x       y       z     vdW  Elec       q    Type
REMARK                         _______ _______ _______ _____ _____    ______ ____
ROOT
ATOM      1  O   UNL     1     -14.065 -42.583  31.898  0.00  0.00    -0.452 OA
ATOM      2  C   UNL     1     -14.427 -41.782  32.816  0.00  0.00    +0.154 A 
ATOM      3  C   UNL     1     -13.525 -41.261  33.704  0.00  0.00    +0.109 A 
ATOM      4  C   UNL     1     -13.948 -40.404  34.679  0.00  0.00    +0.143 C 
ATOM      5  C   UNL     1     -15.318 -40.071  34.750  0.00  0.00    +0.073 C 
ATOM      6  C   UNL     1     -16.226 -40.580  33.875  0.00  0.00    +0.140 C 
ATOM      7  C   UNL     1     -15.795 -41.440  32.899  0.00  0.00    +0.074 C 
ATOM      8  C   UNL     1     -12.221 -41.649  33.548  0.00  0.00    +0.218 A 
ATOM      9  O   UNL     1     -11.295 -41.250  34.289  0.00  0.00    -0.285 OA
ATOM     10  C   UNL     1     -11.832 -42.543  32.519  0.00  0.00    +0.123 A 
ATOM     11  C   UNL     1     -12.773 -43.007  31.694  0.00  0.00    +0.162 A 
ENDROOT
BRANCH  11  12
ATOM     12  C   UNL     1     -12.590 -43.902  30.595  0.00  0.00    +0.037 C 
ATOM     13  C   UNL     1     -11.548 -44.708  30.356  0.00  0.00    +0.021 C 
ATOM     14  C   UNL     1     -11.392 -45.522  29.221  0.00  0.00    +0.083 C 
ATOM     15  C   UNL     1     -12.366 -45.507  28.265  0.00  0.00    +0.147 C 
ATOM     16  C   UNL     1     -13.465 -44.687  28.464  0.00  0.00    +0.038 C 
ATOM     17  C   UNL     1     -13.580 -43.908  29.591  0.00  0.00    +0.006 C 
BRANCH  14  18
ATOM     18  N   UNL     1     -10.239 -46.312  29.051  0.00  0.00    -0.310 N 
ATOM     19  H   UNL     1     -10.267 -46.980  28.328  0.00  0.00    +0.152 HD
BRANCH  18  20
ATOM     20  C   UNL     1      -9.057 -46.251  29.799  0.00  0.00    +0.048 C 
ATOM     21  C   UNL     1      -9.014 -46.877  31.035  0.00  0.00    +0.015 C 
ATOM     22  C   UNL     1      -7.870 -46.853  31.830  0.00  0.00    +0.008 C 
ATOM     23  C   UNL     1      -6.775 -46.190  31.358  0.00  0.00    +0.076 C 
ATOM     24  C   UNL     1      -6.818 -45.567  30.127  0.00  0.00    +0.008 C 
ATOM     25  C   UNL     1      -7.944 -45.592  29.350  0.00  0.00    +0.015 C 
BRANCH  23  26
ATOM     26  C   UNL     1      -5.544 -46.148  32.167  0.00  0.00    +0.338 C 
ATOM     27  O   UNL     1      -4.435 -46.219  31.621  0.00  0.00    -0.245 OA
BRANCH  26  28
ATOM     28  O   UNL     1      -5.645 -46.028  33.546  0.00  0.00    -0.477 OA
ATOM     29  H   UNL     1      -6.488 -45.975  33.951  0.00  0.00    +0.295 HD
ENDBRANCH  26  28
ENDBRANCH  23  26
ENDBRANCH  18  20
ENDBRANCH  14  18
BRANCH  15  30
ATOM     30  O   UNL     1     -12.295 -46.284  27.097  0.00  0.00    -0.504 OA
ATOM     31  H   UNL     1     -12.986 -46.244  26.465  0.00  0.00    +0.292 HD
ENDBRANCH  15  30
ENDBRANCH  11  12
BRANCH  10  32
ATOM     32  N   UNL     1     -10.437 -42.813  32.407  0.00  0.00    -0.300 N 
ATOM     33  C   UNL     1      -9.648 -43.292  33.484  0.00  0.00    +0.110 C 
ATOM     34  C   UNL     1      -8.217 -43.462  33.094  0.00  0.00    +0.110 C 
ATOM     35  N   UNL     1      -7.835 -42.275  32.339  0.00  0.00    -0.214 NA
ATOM     36  C   UNL     1      -8.390 -42.501  30.994  0.00  0.00    +0.110 C 
ATOM     37  C   UNL     1      -9.874 -42.522  31.117  0.00  0.00    +0.110 C 
ENDBRANCH  10  32
BRANCH   6  38
ATOM     38  O   UNL     1     -17.576 -40.218  33.987  0.00  0.00    -0.505 OA
ATOM     39  H   UNL     1     -17.848 -39.628  34.662  0.00  0.00    +0.292 HD
ENDBRANCH   6  38
BRANCH   4  40
ATOM     40  O   UNL     1     -13.085 -39.863  35.583  0.00  0.00    -0.505 OA
ATOM     41  H   UNL     1     -12.173 -40.076  35.546  0.00  0.00    +0.292 HD
ENDBRANCH   4  40
TORSDOF 9
