MODEL 1
REMARK VINA RESULT:   -10.207      0.000      0.000
REMARK INTER + INTRA:         -10.505
REMARK INTER:                 -11.401
REMARK INTRA:                   0.896
REMARK UNBOUND:                 0.896
REMARK  Name = =
REMARK  2 active torsions:
REMARK  status: ('A' for Active; 'I' for Inactive)
REMARK    1  A    between atoms: C_1  and  N_33
REMARK    2  A    between atoms: C_5  and  C_19
REMARK                            x       y       z     vdW  Elec       q    Type
REMARK                         _______ _______ _______ _____ _____    ______ ____
ROOT
ATOM      1  C   UNL     1       2.257  -5.339  27.435  0.00  0.00    +0.121 C 
ATOM      2  C   UNL     1       2.081  -6.480  26.519  0.00  0.00    +0.000 C 
ATOM      3  C   UNL     1       1.670  -7.742  26.914  0.00  0.00    -0.023 C 
ATOM      4  C   UNL     1       1.297  -8.130  28.324  0.00  0.00    +0.035 C 
ATOM      5  C   UNL     1       0.070  -7.376  28.654  0.00  0.00    +0.050 C 
ATOM      6  C   UNL     1       0.037  -5.928  28.429  0.00  0.00    -0.002 C 
ATOM      7  C   UNL     1       0.907  -4.975  27.913  0.00  0.00    +0.074 C 
ATOM      8  N   UNL     1       0.565  -3.697  27.835  0.00  0.00    -0.246 NA
ATOM      9  C   UNL     1      -0.638  -3.281  28.253  0.00  0.00    +0.105 C 
ATOM     10  C   UNL     1      -1.573  -4.149  28.778  0.00  0.00    +0.053 C 
ATOM     11  C   UNL     1      -1.206  -5.471  28.855  0.00  0.00    +0.006 C 
ATOM     12 BR   UNL     1      -3.278  -3.518  29.363  0.00  0.00    -0.047 Br
ATOM     13  C   UNL     1       1.536  -8.749  25.992  0.00  0.00    +0.007 C 
ATOM     14  C   UNL     1       1.800  -8.543  24.666  0.00  0.00    +0.058 C 
ATOM     15  C   UNL     1       2.211  -7.284  24.265  0.00  0.00    +0.018 C 
ATOM     16  C   UNL     1       2.348  -6.255  25.197  0.00  0.00    +0.033 C 
ATOM     17 BR   UNL     1       2.858  -4.539  24.551  0.00  0.00    -0.049 Br
ATOM     18 CL   UNL     1       1.631  -9.838  23.472  0.00  0.00    -0.082 Cl
ENDROOT
BRANCH   5  19
ATOM     19  C   UNL     1      -0.599  -7.807  29.928  0.00  0.00    -0.018 C 
ATOM     20  C   UNL     1      -0.097  -7.478  31.184  0.00  0.00    -0.004 C 
ATOM     21  C   UNL     1      -0.731  -7.902  32.345  0.00  0.00    -0.001 C 
ATOM     22  C   UNL     1      -0.221  -7.566  33.586  0.00  0.00    -0.002 C 
ATOM     23  C   UNL     1       0.923  -6.804  33.642  0.00  0.00    +0.003 C 
ATOM     24  C   UNL     1       1.562  -6.375  32.502  0.00  0.00    -0.021 C 
ATOM     25  C   UNL     1       1.043  -6.719  31.271  0.00  0.00    -0.005 C 
ATOM     26  C   UNL     1       2.799  -5.552  32.558  0.00  0.00    +0.058 C 
ATOM     27  C   UNL     1       3.019  -4.926  33.907  0.00  0.00    +0.147 C 
ATOM     28  O   UNL     1       1.965  -5.084  34.780  0.00  0.00    -0.349 OA
ATOM     29  C   UNL     1       1.551  -6.389  34.940  0.00  0.00    +0.168 C 
ATOM     30  C   UNL     1      -1.881  -8.666  32.297  0.00  0.00    -0.000 C 
ATOM     31  C   UNL     1      -2.384  -8.994  31.067  0.00  0.00    -0.000 C 
ATOM     32  C   UNL     1      -1.758  -8.575  29.919  0.00  0.00    -0.004 C 
ENDBRANCH   5  19
BRANCH   1  33
ATOM     33  N   UNL     1       3.130  -4.364  26.983  0.00  0.00    -0.266 NA
ATOM     34  C   UNL     1       4.460  -4.677  27.544  0.00  0.00    +0.073 C 
ATOM     35  C   UNL     1       5.293  -3.461  27.306  0.00  0.00    +0.019 C 
ATOM     36  C   UNL     1       4.285  -2.331  27.353  0.00  0.00    +0.019 C 
ATOM     37  C   UNL     1       2.904  -3.005  27.319  0.00  0.00    +0.073 C 
ENDBRANCH   1  33
TORSDOF 2
ENDMDL
