MODEL 1
REMARK VINA RESULT:    -5.627      0.000      0.000
REMARK INTER + INTRA:          -8.128
REMARK INTER:                  -7.765
REMARK INTRA:                  -0.363
REMARK UNBOUND:                -0.363
REMARK  Name = =
REMARK  7 active torsions:
REMARK  status: ('A' for Active; 'I' for Inactive)
REMARK    1  A    between atoms: C_1  and  C_9
REMARK    2  A    between atoms: C_1  and  N_12
REMARK    3  A    between atoms: C_6  and  O_22
REMARK    4  A    between atoms: C_13  and  O_15
REMARK    5  A    between atoms: O_15  and  C_16
REMARK    6  A    between atoms: O_22  and  S_23
REMARK    7  A    between atoms: S_23  and  N_26
REMARK                            x       y       z     vdW  Elec       q    Type
REMARK                         _______ _______ _______ _____ _____    ______ ____
ROOT
ATOM      1  C   UNL     1      60.019 160.119  40.316  0.00  0.00    +0.080 C 
ATOM      2  C   UNL     1      59.658 158.736  39.862  0.00  0.00    +0.020 C 
ATOM      3  C   UNL     1      58.843 158.722  38.517  0.00  0.00    +0.002 C 
ATOM      4  C   UNL     1      58.994 160.017  38.019  0.00  0.00    +0.003 C 
ATOM      5  C   UNL     1      59.086 161.312  37.485  0.00  0.00    +0.032 C 
ATOM      6  C   UNL     1      59.925 162.091  38.568  0.00  0.00    +0.146 C 
ATOM      7  C   UNL     1      60.664 161.119  39.475  0.00  0.00    +0.052 C 
ENDROOT
BRANCH   1   9
ATOM      8  N   UNL     1      61.869 158.781  41.603  0.00  0.00    -0.130 NA
ATOM      9  C   UNL     1      61.138 159.790  41.310  0.00  0.00    +0.127 C 
ATOM     10  C   UNL     1      61.854 160.475  42.349  0.00  0.00    +0.130 C 
ATOM     11  N   UNL     1      62.575 159.454  42.625  0.00  0.00    -0.130 NA
ENDBRANCH   1   9
BRANCH   1  12
ATOM     12  N   UNL     1      59.059 160.747  41.203  0.00  0.00    -0.272 N 
ATOM     13  C   UNL     1      58.382 160.134  42.260  0.00  0.00    +0.406 C 
ATOM     14  O   UNL     1      58.565 158.935  42.542  0.00  0.00    -0.226 OA
ATOM     15  H   UNL     1      58.865 161.700  41.044  0.00  0.00    +0.153 HD
BRANCH  13  16
ATOM     16  O   UNL     1      57.470 160.878  43.034  0.00  0.00    -0.410 OA
BRANCH  16  17
ATOM     17  C   UNL     1      56.212 161.198  42.552  0.00  0.00    +0.150 C 
ATOM     18  C   UNL     1      55.426 160.176  42.071  0.00  0.00    +0.038 C 
ATOM     19  C   UNL     1      54.153 160.484  41.582  0.00  0.00    +0.003 C 
ATOM     20  C   UNL     1      53.667 161.775  41.571  0.00  0.00    +0.000 C 
ATOM     21  C   UNL     1      54.471 162.770  42.057  0.00  0.00    +0.003 C 
ATOM     22  C   UNL     1      55.744 162.494  42.550  0.00  0.00    +0.038 C 
ENDBRANCH  16  17
ENDBRANCH  13  16
ENDBRANCH   1  12
BRANCH   6  23
ATOM     23  O   UNL     1      60.842 162.893  37.957  0.00  0.00    -0.232 OA
BRANCH  23  24
ATOM     24  S   UNL     1      60.180 164.431  37.827  0.00  0.00    +0.045 S 
ATOM     25  O   UNL     1      59.176 164.723  38.874  0.00  0.00    -0.056 OA
ATOM     26  O   UNL     1      59.553 164.618  36.454  0.00  0.00    -0.056 OA
BRANCH  24  27
ATOM     27  N   UNL     1      61.477 165.585  37.919  0.00  0.00    -0.204 NA
ATOM     28  H   UNL     1      62.152 165.397  37.179  0.00  0.00    +0.144 HD
ATOM     29  H   UNL     1      61.936 165.508  38.827  0.00  0.00    +0.144 HD
ENDBRANCH  24  27
ENDBRANCH  23  24
ENDBRANCH   6  23
TORSDOF 7
ENDMDL
