MODEL 1
REMARK VINA RESULT:    -8.079      0.000      0.000
REMARK INTER + INTRA:         -13.073
REMARK INTER:                 -12.566
REMARK INTRA:                  -0.507
REMARK UNBOUND:                -0.507
REMARK  Name = =
REMARK  11 active torsions:
REMARK  status: ('A' for Active; 'I' for Inactive)
REMARK    1  A    between atoms: C_4  and  S_16
REMARK    2  A    between atoms: C_7  and  C_20
REMARK    3  A    between atoms: C_9  and  S_10
REMARK    4  A    between atoms: C_11  and  N_12
REMARK    5  A    between atoms: C_11  and  C_13
REMARK    6  A    between atoms: C_13  and  O_15
REMARK    7  A    between atoms: S_16  and  C_17
REMARK    8  A    between atoms: C_17  and  O_19
REMARK    9  A    between atoms: C_20  and  S_21
REMARK   10  A    between atoms: S_21  and  N_24
REMARK   11  A    between atoms: N_27  and  S_28
REMARK                            x       y       z     vdW  Elec       q    Type
REMARK                         _______ _______ _______ _____ _____    ______ ____
ROOT
ATOM      1  C   UNL     1      -4.400  -4.386  32.338  0.00  0.00    -0.017 C 
ATOM      2  C   UNL     1      -3.631  -4.510  31.221  0.00  0.00    -0.023 C 
ATOM      3  C   UNL     1      -3.075  -5.748  30.879  0.00  0.00    +0.002 C 
ATOM      4  C   UNL     1      -3.265  -6.883  31.630  0.00  0.00    +0.032 C 
ATOM      5  C   UNL     1      -4.063  -6.701  32.770  0.00  0.00    +0.006 C 
ATOM      6  C   UNL     1      -4.616  -5.516  33.127  0.00  0.00    -0.003 C 
ATOM      7  C   UNL     1      -3.495  -3.232  30.515  0.00  0.00    +0.049 C 
ATOM      8  C   UNL     1      -4.111  -2.228  31.417  0.00  0.00    +0.021 C 
ATOM      9  C   UNL     1      -4.862  -2.992  32.459  0.00  0.00    +0.063 C 
ENDROOT
BRANCH   9  10
ATOM     10  S   UNL     1      -6.649  -2.911  32.046  0.00  0.00    -0.159 S 
ATOM     11  C   UNL     1      -7.476  -1.529  32.073  0.00  0.00    +0.133 C 
ATOM     12  H   UNL     1      -7.278  -3.746  32.916  0.00  0.00    +0.099 HD
BRANCH  11  13
ATOM     13  N   UNL     1      -8.874  -1.515  31.741  0.00  0.00    -0.348 N 
ATOM     14  H   UNL     1      -9.178  -1.082  30.911  0.00  0.00    +0.143 HD
ATOM     15  H   UNL     1      -9.526  -1.937  32.344  0.00  0.00    +0.143 HD
ENDBRANCH  11  13
BRANCH  11  16
ATOM     16  C   UNL     1      -6.861  -0.270  32.421  0.00  0.00    +0.356 C 
ATOM     17  O   UNL     1      -6.798   0.637  31.514  0.00  0.00    -0.243 OA
BRANCH  16  18
ATOM     18  O   UNL     1      -6.323   0.087  33.625  0.00  0.00    -0.476 OA
ATOM     19  H   UNL     1      -6.067  -0.573  34.238  0.00  0.00    +0.295 HD
ENDBRANCH  16  18
ENDBRANCH  11  16
ENDBRANCH   9  10
BRANCH   4  20
ATOM     20  S   UNL     1      -2.634  -8.490  31.324  0.00  0.00    -0.043 S 
BRANCH  20  21
ATOM     21  C   UNL     1      -1.404  -8.685  30.124  0.00  0.00    +0.203 C 
ATOM     22  S   UNL     1      -0.123  -7.701  29.970  0.00  0.00    -0.004 S 
BRANCH  21  23
ATOM     23  O   UNL     1      -1.548  -9.783  29.228  0.00  0.00    -0.496 OA
ATOM     24  H   UNL     1      -2.403 -10.061  28.961  0.00  0.00    +0.293 HD
ENDBRANCH  21  23
ENDBRANCH  20  21
ENDBRANCH   4  20
BRANCH   7  25
ATOM     25  C   UNL     1      -2.009  -2.973  30.309  0.00  0.00    +0.177 C 
BRANCH  25  26
ATOM     26  S   UNL     1      -1.737  -2.058  28.812  0.00  0.00    +0.057 S 
ATOM     27  O   UNL     1      -2.228  -0.653  28.905  0.00  0.00    -0.154 OA
ATOM     28  O   UNL     1      -2.513  -2.714  27.681  0.00  0.00    -0.154 OA
BRANCH  26  29
ATOM     29  N   UNL     1      -0.060  -2.054  28.400  0.00  0.00    -0.172 N 
ATOM     30  C   UNL     1       0.382  -1.594  27.142  0.00  0.00    +0.328 C 
ATOM     31  O   UNL     1      -0.522  -1.189  26.346  0.00  0.00    -0.250 OA
ATOM     32  N   UNL     1       1.712  -1.552  26.716  0.00  0.00    -0.239 N 
ATOM     33  H   UNL     1       0.599  -2.379  29.055  0.00  0.00    +0.178 HD
ATOM     34  H   UNL     1       2.433  -1.861  27.312  0.00  0.00    +0.165 HD
BRANCH  32  35
ATOM     35  S   UNL     1       2.081  -0.961  25.149  0.00  0.00    -0.029 S 
ATOM     36  O   UNL     1       2.157   0.552  25.129  0.00  0.00    -0.157 OA
ATOM     37  C   UNL     1       3.555  -1.346  24.683  0.00  0.00    +0.095 C 
ATOM     38  H   UNL     1       1.103  -1.491  24.367  0.00  0.00    +0.132 HD
ENDBRANCH  32  35
ENDBRANCH  26  29
ENDBRANCH  25  26
ENDBRANCH   7  25
TORSDOF 11
ENDMDL
