MODEL 1
REMARK VINA RESULT:    -9.191      0.000      0.000
REMARK INTER + INTRA:         -12.027
REMARK INTER:                 -11.878
REMARK INTRA:                  -0.149
REMARK UNBOUND:                -0.149
REMARK  Name = =
REMARK  5 active torsions:
REMARK  status: ('A' for Active; 'I' for Inactive)
REMARK    1  A    between atoms: C_1  and  O_16
REMARK    2  A    between atoms: N_5  and  N_6
REMARK    3  A    between atoms: C_7  and  O_9
REMARK    4  A    between atoms: O_9  and  C_10
REMARK    5  A    between atoms: O_16  and  C_22
REMARK                            x       y       z     vdW  Elec       q    Type
REMARK                         _______ _______ _______ _____ _____    ______ ____
ROOT
ATOM      1  C   UNL     1      52.538 155.458  28.490  0.00  0.00    +0.312 C 
ATOM      2  N   UNL     1      52.510 154.082  28.971  0.00  0.00    -0.248 NA
ATOM      3  C   UNL     1      51.423 153.992  29.935  0.00  0.00    +0.092 C 
ATOM      4  C   UNL     1      50.720 155.341  29.927  0.00  0.00    +0.114 C 
ATOM      5  N   UNL     1      51.569 156.184  29.198  0.00  0.00    -0.152 NA
ATOM      6  H   UNL     1      53.397 153.849  29.419  0.00  0.00    +0.128 HD
ENDROOT
BRANCH   5   7
ATOM      7  N   UNL     1      51.706 157.484  29.468  0.00  0.00    -0.208 N 
ATOM      8  C   UNL     1      50.711 158.372  30.009  0.00  0.00    +0.420 C 
ATOM      9  O   UNL     1      49.593 157.874  30.256  0.00  0.00    -0.225 OA
ATOM     10  H   UNL     1      52.587 157.880  29.274  0.00  0.00    +0.173 HD
BRANCH   8  11
ATOM     11  O   UNL     1      51.039 159.687  30.217  0.00  0.00    -0.409 OA
BRANCH  11  12
ATOM     12  C   UNL     1      50.215 160.472  31.002  0.00  0.00    +0.150 C 
ATOM     13  C   UNL     1      50.518 160.681  32.326  0.00  0.00    +0.038 C 
ATOM     14  C   UNL     1      49.738 161.454  33.164  0.00  0.00    +0.003 C 
ATOM     15  C   UNL     1      48.596 162.056  32.675  0.00  0.00    +0.000 C 
ATOM     16  C   UNL     1      48.308 161.834  31.344  0.00  0.00    +0.003 C 
ATOM     17  C   UNL     1      49.071 161.070  30.498  0.00  0.00    +0.038 C 
ENDBRANCH  11  12
ENDBRANCH   8  11
ENDBRANCH   5   7
BRANCH   1  18
ATOM     18  O   UNL     1      52.191 155.463  27.113  0.00  0.00    -0.431 OA
BRANCH  18  24
ATOM     19  N   UNL     1      54.579 152.567  24.472  0.00  0.00    -0.224 NA
ATOM     20  C   UNL     1      54.405 153.821  24.708  0.00  0.00    +0.185 A 
ATOM     21  C   UNL     1      53.474 154.016  25.701  0.00  0.00    +0.167 A 
ATOM     22  N   UNL     1      53.054 152.859  26.095  0.00  0.00    -0.236 NA
ATOM     23  C   UNL     1      53.730 151.804  25.335  0.00  0.00    +0.252 C 
ATOM     24  C   UNL     1      53.120 155.280  26.124  0.00  0.00    +0.250 A 
ATOM     25  N   UNL     1      53.717 156.324  25.532  0.00  0.00    -0.178 NA
ATOM     26  C   UNL     1      54.634 156.148  24.553  0.00  0.00    +0.218 A 
ATOM     27  N   UNL     1      54.963 154.913  24.159  0.00  0.00    -0.193 NA
ATOM     28  N   UNL     1      55.278 157.231  23.912  0.00  0.00    -0.327 N 
ATOM     29  H   UNL     1      55.064 158.156  24.174  0.00  0.00    +0.145 HD
ATOM     30  H   UNL     1      55.940 157.062  23.204  0.00  0.00    +0.145 HD
ENDBRANCH  18  24
ENDBRANCH   1  18
TORSDOF 5
ENDMDL
