REMARK  Name = =
REMARK  5 active torsions:
REMARK  status: ('A' for Active; 'I' for Inactive)
REMARK    1  A    between atoms: C_1  and  O_16
REMARK    2  A    between atoms: N_5  and  N_6
REMARK    3  A    between atoms: C_7  and  O_9
REMARK    4  A    between atoms: O_9  and  C_10
REMARK    5  A    between atoms: O_16  and  C_22
REMARK                            x       y       z     vdW  Elec       q    Type
REMARK                         _______ _______ _______ _____ _____    ______ ____
ROOT
ATOM      1  C   UNL     1      52.983 157.471  25.925  0.00  0.00    +0.312 C 
ATOM      2  N   UNL     1      53.393 156.072  25.894  0.00  0.00    -0.248 NA
ATOM      3  C   UNL     1      52.604 155.377  26.901  0.00  0.00    +0.092 C 
ATOM      4  C   UNL     1      51.616 156.391  27.458  0.00  0.00    +0.114 C 
ATOM      5  N   UNL     1      52.054 157.627  26.964  0.00  0.00    -0.152 NA
ATOM      6  H   UNL     1      54.387 155.993  26.111  0.00  0.00    +0.128 HD
ENDROOT
BRANCH   5   7
ATOM      7  N   UNL     1      51.934 158.766  27.650  0.00  0.00    -0.208 N 
ATOM      8  C   UNL     1      52.859 159.306  28.612  0.00  0.00    +0.420 C 
ATOM      9  O   UNL     1      53.890 158.638  28.832  0.00  0.00    -0.225 OA
ATOM     10  H   UNL     1      51.122 159.296  27.479  0.00  0.00    +0.173 HD
BRANCH   8  11
ATOM     11  O   UNL     1      52.561 160.498  29.221  0.00  0.00    -0.409 OA
BRANCH  11  12
ATOM     12  C   UNL     1      51.519 160.551  30.128  0.00  0.00    +0.150 C 
ATOM     13  C   UNL     1      50.769 161.696  30.252  0.00  0.00    +0.038 C 
ATOM     14  C   UNL     1      49.716 161.814  31.138  0.00  0.00    +0.003 C 
ATOM     15  C   UNL     1      49.380 160.749  31.948  0.00  0.00    +0.000 C 
ATOM     16  C   UNL     1      50.144 159.608  31.810  0.00  0.00    +0.003 C 
ATOM     17  C   UNL     1      51.193 159.473  30.936  0.00  0.00    +0.038 C 
ENDBRANCH  11  12
ENDBRANCH   8  11
ENDBRANCH   5   7
BRANCH   1  18
ATOM     18  O   UNL     1      52.344 157.783  24.696  0.00  0.00    -0.431 OA
BRANCH  18  24
ATOM     19  N   UNL     1      52.333 159.330  20.374  0.00  0.00    -0.224 NA
ATOM     20  C   UNL     1      53.117 158.886  21.294  0.00  0.00    +0.185 A 
ATOM     21  C   UNL     1      52.418 158.578  22.438  0.00  0.00    +0.167 A 
ATOM     22  N   UNL     1      51.169 158.837  22.231  0.00  0.00    -0.236 NA
ATOM     23  C   UNL     1      50.991 159.351  20.871  0.00  0.00    +0.252 C 
ATOM     24  C   UNL     1      53.049 158.086  23.561  0.00  0.00    +0.250 A 
ATOM     25  N   UNL     1      54.377 157.914  23.505  0.00  0.00    -0.178 NA
ATOM     26  C   UNL     1      55.078 158.213  22.387  0.00  0.00    +0.218 A 
ATOM     27  N   UNL     1      54.446 158.689  21.308  0.00  0.00    -0.193 NA
ATOM     28  N   UNL     1      56.479 158.043  22.301  0.00  0.00    -0.327 N 
ATOM     29  H   UNL     1      56.981 157.695  23.073  0.00  0.00    +0.145 HD
ATOM     30  H   UNL     1      56.953 158.272  21.469  0.00  0.00    +0.145 HD
ENDBRANCH  18  24
ENDBRANCH   1  18
TORSDOF 5
