REMARK  Name = =
REMARK  3 active torsions:
REMARK  status: ('A' for Active; 'I' for Inactive)
REMARK    1  A    between atoms: C_1  and  C_23
REMARK    2  A    between atoms: C_21  and  C_25
REMARK    3  A    between atoms: C_28  and  O_32
REMARK                            x       y       z     vdW  Elec       q    Type
REMARK                         _______ _______ _______ _____ _____    ______ ____
ROOT
ATOM      1  C   UNL     1      51.406 158.550  29.855  0.00  0.00    +0.090 C 
ATOM      2  C   UNL     1      52.269 159.736  30.135  0.00  0.00    -0.015 C 
ATOM      3  C   UNL     1      51.685 160.910  30.502  0.00  0.00    -0.022 C 
ATOM      4  C   UNL     1      52.457 162.054  30.775  0.00  0.00    +0.036 C 
ATOM      5  C   UNL     1      53.822 161.965  30.666  0.00  0.00    +0.176 C 
ATOM      6  C   UNL     1      54.422 160.786  30.298  0.00  0.00    +0.176 C 
ATOM      7  C   UNL     1      53.631 159.659  30.030  0.00  0.00    +0.036 C 
ATOM      8  O   UNL     1      55.780 161.011  30.277  0.00  0.00    -0.435 OA
ATOM      9  C   UNL     1      56.055 162.288  30.822  0.00  0.00    +0.429 C 
ATOM     10  O   UNL     1      54.791 162.931  30.878  0.00  0.00    -0.435 OA
ATOM     11  C   UNL     1      50.244 161.038  30.637  0.00  0.00    +0.029 C 
ATOM     12  C   UNL     1      49.413 160.086  29.884  0.00  0.00    +0.037 C 
ATOM     13  C   UNL     1      50.158 159.029  29.134  0.00  0.00    +0.044 C 
ATOM     14  C   UNL     1      49.129 157.942  29.036  0.00  0.00    +0.143 C 
ATOM     15  O   UNL     1      48.498 157.968  30.281  0.00  0.00    -0.354 OA
ATOM     16  C   UNL     1      48.406 159.306  30.652  0.00  0.00    +0.143 C 
ATOM     17  C   UNL     1      51.136 157.900  31.166  0.00  0.00    +0.014 C 
ENDROOT
BRANCH   1  23
ATOM     18  N   UNL     1      51.894 156.377  28.540  0.00  0.00    -0.279 N 
ATOM     19  C   UNL     1      50.918 155.472  29.064  0.00  0.00    +0.094 C 
ATOM     20  C   UNL     1      51.249 154.100  28.441  0.00  0.00    +0.028 C 
ATOM     21  C   UNL     1      52.710 154.279  28.106  0.00  0.00    +0.044 C 
ATOM     22  C   UNL     1      52.682 155.670  27.512  0.00  0.00    +0.098 C 
ATOM     23  C   UNL     1      52.142 157.721  28.876  0.00  0.00    +0.229 C 
ATOM     24  O   UNL     1      53.113 158.361  28.300  0.00  0.00    -0.275 OA
BRANCH  21  25
ATOM     25  C   UNL     1      53.215 153.269  27.174  0.00  0.00    -0.020 C 
ATOM     26  C   UNL     1      54.566 153.020  27.073  0.00  0.00    +0.006 C 
ATOM     27  C   UNL     1      55.063 152.070  26.196  0.00  0.00    +0.068 C 
ATOM     28  C   UNL     1      54.205 151.351  25.403  0.00  0.00    +0.140 C 
ATOM     29  C   UNL     1      52.860 151.577  25.482  0.00  0.00    +0.037 C 
ATOM     30  C   UNL     1      52.370 152.539  26.371  0.00  0.00    -0.001 C 
ATOM     31 BR   UNL     1      56.930 151.706  26.036  0.00  0.00    -0.046 Br
BRANCH  28  32
ATOM     32  O   UNL     1      54.648 150.387  24.509  0.00  0.00    -0.505 OA
ATOM     33  H   UNL     1      54.031 149.916  23.984  0.00  0.00    +0.292 HD
ENDBRANCH  28  32
ENDBRANCH  21  25
ENDBRANCH   1  23
TORSDOF 3
