REMARK  Name = =
REMARK  0 active torsions:
REMARK  status: ('A' for Active; 'I' for Inactive)
REMARK                            x       y       z     vdW  Elec       q    Type
REMARK                         _______ _______ _______ _____ _____    ______ ____
ROOT
ATOM      1  C   UNL     1     -14.165 -43.066  32.369  0.00  0.00    +0.082 C 
ATOM      2  C   UNL     1     -13.591 -44.193  31.847  0.00  0.00    +0.010 C 
ATOM      3  C   UNL     1     -12.200 -44.314  31.857  0.00  0.00    +0.035 C 
ATOM      4  C   UNL     1     -11.477 -43.278  32.397  0.00  0.00    +0.149 C 
ATOM      5  C   UNL     1     -10.083 -43.350  32.430  0.00  0.00    +0.038 C 
ATOM      6  C   UNL     1      -9.438 -44.455  31.924  0.00  0.00    +0.003 C 
ATOM      7  C   UNL     1     -10.177 -45.494  31.382  0.00  0.00    +0.000 C 
ATOM      8  C   UNL     1     -11.560 -45.418  31.351  0.00  0.00    +0.003 C 
ATOM      9  O   UNL     1     -12.064 -42.199  32.893  0.00  0.00    -0.421 OA
ATOM     10  C   UNL     1     -13.363 -42.089  32.884  0.00  0.00    +0.346 C 
ATOM     11  O   UNL     1     -13.923 -41.040  33.366  0.00  0.00    -0.244 OA
ENDROOT
TORSDOF 0
