REMARK  Name = =
REMARK  2 active torsions:
REMARK  status: ('A' for Active; 'I' for Inactive)
REMARK    1  A    between atoms: C_2  and  C_7
REMARK    2  A    between atoms: C_4  and  C_18
REMARK                            x       y       z     vdW  Elec       q    Type
REMARK                         _______ _______ _______ _____ _____    ______ ____
ROOT
ATOM      1  C   UNL     1     -14.938 -42.129  32.133  0.00  0.00    +0.000 C 
ATOM      2  C   UNL     1     -14.411 -42.759  31.010  0.00  0.00    +0.006 C 
ATOM      3  C   UNL     1     -15.117 -42.712  29.817  0.00  0.00    +0.000 C 
ATOM      4  C   UNL     1     -16.325 -42.051  29.737  0.00  0.00    +0.000 C 
ATOM      5  C   UNL     1     -16.821 -41.435  30.876  0.00  0.00    +0.000 C 
ATOM      6  C   UNL     1     -16.143 -41.465  32.072  0.00  0.00    +0.000 C 
ENDROOT
BRANCH   2   7
ATOM      7  C   UNL     1     -13.131 -43.441  31.146  0.00  0.00    +0.076 C 
ATOM      8  C   UNL     1     -12.680 -44.245  30.122  0.00  0.00    +0.009 C 
ATOM      9  C   UNL     1     -11.449 -44.875  30.300  0.00  0.00    +0.035 C 
ATOM     10  C   UNL     1     -10.737 -44.681  31.466  0.00  0.00    +0.149 C 
ATOM     11  C   UNL     1      -9.516 -45.279  31.695  0.00  0.00    +0.038 C 
ATOM     12  C   UNL     1      -8.971 -46.104  30.736  0.00  0.00    +0.003 C 
ATOM     13  C   UNL     1      -9.673 -46.312  29.556  0.00  0.00    +0.000 C 
ATOM     14  C   UNL     1     -10.905 -45.697  29.348  0.00  0.00    +0.003 C 
ATOM     15  O   UNL     1     -11.216 -43.904  32.407  0.00  0.00    -0.421 OA
ATOM     16  C   UNL     1     -12.363 -43.289  32.294  0.00  0.00    +0.346 C 
ATOM     17  O   UNL     1     -12.761 -42.556  33.243  0.00  0.00    -0.244 OA
ENDBRANCH   2   7
BRANCH   4  18
ATOM     18  C   UNL     1     -17.044 -42.017  28.468  0.00  0.00    +0.000 C 
ATOM     19  C   UNL     1     -16.416 -42.453  27.298  0.00  0.00    +0.000 C 
ATOM     20  C   UNL     1     -17.122 -42.405  26.124  0.00  0.00    +0.000 C 
ATOM     21  C   UNL     1     -18.430 -41.944  26.044  0.00  0.00    +0.000 C 
ATOM     22  C   UNL     1     -19.034 -41.518  27.202  0.00  0.00    +0.000 C 
ATOM     23  C   UNL     1     -18.342 -41.558  28.391  0.00  0.00    +0.000 C 
ENDBRANCH   4  18
TORSDOF 2
