MODEL 1
REMARK VINA RESULT:    -8.578      0.000      0.000
REMARK INTER + INTRA:         -16.172
REMARK INTER:                 -15.097
REMARK INTRA:                  -1.075
REMARK UNBOUND:                -1.075
REMARK  Name = =
REMARK  15 active torsions:
REMARK  status: ('A' for Active; 'I' for Inactive)
REMARK    1  A    between atoms: C_2  and  N_18
REMARK    2  A    between atoms: C_3  and  S_14
REMARK    3  A    between atoms: C_4  and  C_11
REMARK    4  A    between atoms: C_5  and  N_15
REMARK    5  A    between atoms: C_8  and  O_28
REMARK    6  A    between atoms: N_15  and  N_16
REMARK    7  A    between atoms: N_18  and  C_19
REMARK    8  A    between atoms: C_19  and  C_21
REMARK    9  A    between atoms: C_21  and  O_23
REMARK   10  A    between atoms: O_23  and  P_24
REMARK   11  A    between atoms: P_24  and  O_26
REMARK   12  A    between atoms: P_24  and  O_27
REMARK   13  A    between atoms: O_28  and  C_29
REMARK   14  A    between atoms: C_29  and  C_31
REMARK   15  A    between atoms: C_31  and  O_33
REMARK                            x       y       z     vdW  Elec       q    Type
REMARK                         _______ _______ _______ _____ _____    ______ ____
ROOT
ATOM      1  C   UNL     1      -2.089  -4.107  30.241  0.00  0.00    +0.015 A 
ATOM      2  C   UNL     1      -1.057  -4.952  29.939  0.00  0.00    +0.051 A 
ATOM      3  C   UNL     1      -1.139  -6.228  30.415  0.00  0.00    +0.037 A 
ATOM      4  C   UNL     1      -2.201  -6.720  31.181  0.00  0.00    +0.032 A 
ATOM      5  C   UNL     1      -3.219  -5.850  31.465  0.00  0.00    +0.063 A 
ATOM      6  C   UNL     1      -3.165  -4.526  30.991  0.00  0.00    +0.019 A 
ATOM      7  C   UNL     1      -4.216  -3.685  31.307  0.00  0.00    +0.039 C 
ATOM      8  C   UNL     1      -4.237  -2.378  30.885  0.00  0.00    +0.146 C 
ATOM      9  C   UNL     1      -3.129  -1.970  30.121  0.00  0.00    +0.038 C 
ATOM     10  C   UNL     1      -2.088  -2.807  29.809  0.00  0.00    +0.004 C 
ENDROOT
BRANCH   4  11
ATOM     11  C   UNL     1      -2.191  -8.113  31.601  0.00  0.00    +0.059 C 
ATOM     12  C   UNL     1      -1.760  -8.576  32.743  0.00  0.00    +0.012 C 
ATOM     13 CL   UNL     1      -2.849  -9.283  30.429  0.00  0.00    -0.082 Cl
ENDBRANCH   4  11
BRANCH   3  14
ATOM     14  S   UNL     1       0.191  -7.382  30.062  0.00  0.00    -0.140 S 
ATOM     15  H   UNL     1       1.341  -6.693  29.835  0.00  0.00    +0.107 HD
ENDBRANCH   3  14
BRANCH   5  16
ATOM     16  N   UNL     1      -4.360  -6.220  32.225  0.00  0.00    -0.234 N 
ATOM     17  H   UNL     1      -5.151  -6.595  31.775  0.00  0.00    +0.170 HD
BRANCH  16  18
ATOM     18  N   UNL     1      -4.356  -6.052  33.591  0.00  0.00    +0.047 NA
ATOM     19  O   UNL     1      -3.358  -5.740  34.280  0.00  0.00    -0.079 OA
ENDBRANCH  16  18
ENDBRANCH   5  16
BRANCH   2  20
ATOM     20  N   UNL     1       0.069  -4.593  29.161  0.00  0.00    -0.325 N 
ATOM     21  H   UNL     1       0.176  -4.990  28.267  0.00  0.00    +0.147 HD
BRANCH  20  22
ATOM     22  C   UNL     1       1.075  -3.654  29.642  0.00  0.00    +0.170 C 
ATOM     23  C   UNL     1       1.810  -3.028  28.447  0.00  0.00    +0.033 C 
BRANCH  22  24
ATOM     24  C   UNL     1       2.077  -4.350  30.519  0.00  0.00    +0.342 C 
ATOM     25  O   UNL     1       2.978  -5.043  29.990  0.00  0.00    -0.248 OA
BRANCH  24  26
ATOM     26  O   UNL     1       2.048  -4.258  31.890  0.00  0.00    -0.370 OA
BRANCH  26  27
ATOM     27  P   UNL     1       2.550  -5.526  32.949  0.00  0.00    +0.530 P 
ATOM     28  O   UNL     1       3.980  -5.155  33.364  0.00  0.00    -0.216 OA
BRANCH  27  29
ATOM     29  O   UNL     1       2.632  -7.016  32.160  0.00  0.00    -0.293 OA
ATOM     30  H   UNL     1       3.526  -7.147  31.808  0.00  0.00    +0.223 HD
ENDBRANCH  27  29
BRANCH  27  31
ATOM     31  O   UNL     1       1.587  -5.623  34.323  0.00  0.00    -0.293 OA
ATOM     32  H   UNL     1       0.752  -6.065  34.103  0.00  0.00    +0.223 HD
ENDBRANCH  27  31
ENDBRANCH  26  27
ENDBRANCH  24  26
ENDBRANCH  22  24
ENDBRANCH  20  22
ENDBRANCH   2  20
BRANCH   8  33
ATOM     33  O   UNL     1      -5.206  -1.461  31.125  0.00  0.00    -0.447 OA
BRANCH  33  34
ATOM     34  C   UNL     1      -5.923  -1.127  32.229  0.00  0.00    +0.220 C 
ATOM     35  C   UNL     1      -6.334   0.034  32.599  0.00  0.00    +0.048 C 
BRANCH  34  36
ATOM     36  C   UNL     1      -6.304  -2.252  33.164  0.00  0.00    +0.373 C 
ATOM     37  O   UNL     1      -7.366  -2.890  32.984  0.00  0.00    -0.242 OA
BRANCH  36  38
ATOM     38  O   UNL     1      -5.483  -2.579  34.225  0.00  0.00    -0.475 OA
ATOM     39  H   UNL     1      -4.861  -1.956  34.547  0.00  0.00    +0.296 HD
ENDBRANCH  36  38
ENDBRANCH  34  36
ENDBRANCH  33  34
ENDBRANCH   8  33
TORSDOF 15
ENDMDL
