REMARK  Name = =
REMARK  15 active torsions:
REMARK  status: ('A' for Active; 'I' for Inactive)
REMARK    1  A    between atoms: C_2  and  N_18
REMARK    2  A    between atoms: C_3  and  S_14
REMARK    3  A    between atoms: C_4  and  C_11
REMARK    4  A    between atoms: C_5  and  N_15
REMARK    5  A    between atoms: C_8  and  O_28
REMARK    6  A    between atoms: N_15  and  N_16
REMARK    7  A    between atoms: N_18  and  C_19
REMARK    8  A    between atoms: C_19  and  C_21
REMARK    9  A    between atoms: C_21  and  O_23
REMARK   10  A    between atoms: O_23  and  P_24
REMARK   11  A    between atoms: P_24  and  O_26
REMARK   12  A    between atoms: P_24  and  O_27
REMARK   13  A    between atoms: O_28  and  C_29
REMARK   14  A    between atoms: C_29  and  C_31
REMARK   15  A    between atoms: C_31  and  O_33
REMARK                            x       y       z     vdW  Elec       q    Type
REMARK                         _______ _______ _______ _____ _____    ______ ____
ROOT
ATOM      1  C   UNL     1      -3.019  -3.731  30.044  0.00  0.00    +0.015 A 
ATOM      2  C   UNL     1      -4.029  -3.495  30.934  0.00  0.00    +0.051 A 
ATOM      3  C   UNL     1      -4.201  -4.407  31.935  0.00  0.00    +0.037 A 
ATOM      4  C   UNL     1      -3.416  -5.552  32.105  0.00  0.00    +0.032 A 
ATOM      5  C   UNL     1      -2.413  -5.759  31.198  0.00  0.00    +0.063 A 
ATOM      6  C   UNL     1      -2.209  -4.839  30.153  0.00  0.00    +0.019 A 
ATOM      7  C   UNL     1      -1.184  -5.095  29.260  0.00  0.00    +0.039 C 
ATOM      8  C   UNL     1      -0.923  -4.248  28.211  0.00  0.00    +0.146 C 
ATOM      9  C   UNL     1      -1.762  -3.122  28.117  0.00  0.00    +0.038 C 
ATOM     10  C   UNL     1      -2.777  -2.872  29.004  0.00  0.00    +0.004 C 
ENDROOT
BRANCH   4  11
ATOM     11  C   UNL     1      -3.675  -6.431  33.235  0.00  0.00    +0.059 C 
ATOM     12  C   UNL     1      -4.564  -7.387  33.287  0.00  0.00    +0.012 C 
ATOM     13 CL   UNL     1      -2.659  -6.167  34.675  0.00  0.00    -0.082 Cl
ENDBRANCH   4  11
BRANCH   3  14
ATOM     14  S   UNL     1      -5.519  -4.158  33.130  0.00  0.00    -0.140 S 
ATOM     15  H   UNL     1      -6.188  -3.012  32.834  0.00  0.00    +0.107 HD
ENDBRANCH   3  14
BRANCH   5  16
ATOM     16  N   UNL     1      -1.537  -6.875  31.259  0.00  0.00    -0.234 N 
ATOM     17  H   UNL     1      -1.785  -7.722  30.823  0.00  0.00    +0.170 HD
BRANCH  16  18
ATOM     18  N   UNL     1      -0.340  -6.768  31.930  0.00  0.00    +0.047 NA
ATOM     19  O   UNL     1       0.091  -7.582  32.778  0.00  0.00    -0.079 OA
ENDBRANCH  16  18
ENDBRANCH   5  16
BRANCH   2  20
ATOM     20  N   UNL     1      -4.887  -2.371  30.891  0.00  0.00    -0.325 N 
ATOM     21  H   UNL     1      -4.952  -1.853  30.057  0.00  0.00    +0.147 HD
BRANCH  20  22
ATOM     22  C   UNL     1      -5.678  -1.956  32.043  0.00  0.00    +0.170 C 
ATOM     23  C   UNL     1      -6.978  -2.774  32.098  0.00  0.00    +0.033 C 
BRANCH  22  24
ATOM     24  C   UNL     1      -6.025  -0.497  31.954  0.00  0.00    +0.342 C 
ATOM     25  O   UNL     1      -5.580   0.293  32.821  0.00  0.00    -0.248 OA
BRANCH  24  26
ATOM     26  O   UNL     1      -6.817   0.014  30.955  0.00  0.00    -0.370 OA
BRANCH  26  27
ATOM     27  P   UNL     1      -7.780   1.437  31.124  0.00  0.00    +0.530 P 
ATOM     28  O   UNL     1      -9.199   1.007  30.727  0.00  0.00    -0.216 OA
BRANCH  27  29
ATOM     29  O   UNL     1      -7.310   2.652  30.050  0.00  0.00    -0.293 OA
ATOM     30  H   UNL     1      -6.414   2.950  30.271  0.00  0.00    +0.223 HD
ENDBRANCH  27  29
BRANCH  27  31
ATOM     31  O   UNL     1      -7.801   2.005  32.706  0.00  0.00    -0.293 OA
ATOM     32  H   UNL     1      -8.073   1.290  33.303  0.00  0.00    +0.223 HD
ENDBRANCH  27  31
ENDBRANCH  26  27
ENDBRANCH  24  26
ENDBRANCH  22  24
ENDBRANCH  20  22
ENDBRANCH   2  20
BRANCH   8  33
ATOM     33  O   UNL     1       0.049  -4.385  27.277  0.00  0.00    -0.447 OA
BRANCH  33  34
ATOM     34  C   UNL     1       1.354  -4.012  27.226  0.00  0.00    +0.220 C 
ATOM     35  C   UNL     1       2.087  -3.791  26.192  0.00  0.00    +0.048 C 
BRANCH  34  36
ATOM     36  C   UNL     1       2.064  -3.822  28.547  0.00  0.00    +0.373 C 
ATOM     37  O   UNL     1       1.795  -2.837  29.272  0.00  0.00    -0.242 OA
BRANCH  36  38
ATOM     38  O   UNL     1       3.016  -4.733  28.960  0.00  0.00    -0.475 OA
ATOM     39  H   UNL     1       3.222  -5.472  28.422  0.00  0.00    +0.296 HD
ENDBRANCH  36  38
ENDBRANCH  34  36
ENDBRANCH  33  34
ENDBRANCH   8  33
TORSDOF 15
