REMARK  Name = =
REMARK  3 active torsions:
REMARK  status: ('A' for Active; 'I' for Inactive)
REMARK    1  A    between atoms: C_8  and  N_19
REMARK    2  A    between atoms: C_9  and  C_12
REMARK    3  A    between atoms: N_22  and  C_23
REMARK                            x       y       z     vdW  Elec       q    Type
REMARK                         _______ _______ _______ _____ _____    ______ ____
ROOT
ATOM      1  N   UNL     1      -2.806  -7.987  31.424  0.00  0.00    -0.248 N 
ATOM      2  C   UNL     1      -1.563  -7.909  30.690  0.00  0.00    +0.252 C 
ATOM      3  O   UNL     1      -0.889  -8.910  30.484  0.00  0.00    -0.270 OA
ATOM      4  C   UNL     1      -1.331  -6.548  30.315  0.00  0.00    +0.056 C 
ATOM      5  C   UNL     1      -2.392  -5.809  30.806  0.00  0.00    +0.058 C 
ATOM      6  C   UNL     1      -2.400  -4.463  30.685  0.00  0.00    +0.006 C 
ATOM      7  C   UNL     1      -1.370  -3.802  30.083  0.00  0.00    +0.015 C 
ATOM      8  C   UNL     1      -0.296  -4.538  29.586  0.00  0.00    +0.048 C 
ATOM      9  C   UNL     1      -0.231  -5.921  29.672  0.00  0.00    +0.003 C 
ATOM     10  C   UNL     1      -3.338  -6.702  31.510  0.00  0.00    +0.252 C 
ATOM     11  O   UNL     1      -4.418  -6.406  32.082  0.00  0.00    -0.270 OA
ATOM     12  H   UNL     1      -3.207  -8.805  31.798  0.00  0.00    +0.158 HD
ENDROOT
BRANCH   9  13
ATOM     13  C   UNL     1       0.664  -6.809  28.962  0.00  0.00    +0.081 C 
ATOM     14  C   UNL     1       1.974  -7.232  29.405  0.00  0.00    +0.012 C 
ATOM     15  C   UNL     1       2.756  -7.843  28.248  0.00  0.00    +0.001 C 
ATOM     16  C   UNL     1       2.114  -8.996  27.567  0.00  0.00    +0.008 C 
ATOM     17  C   UNL     1       0.655  -8.800  27.243  0.00  0.00    +0.065 C 
ATOM     18  C   UNL     1       0.124  -7.569  27.810  0.00  0.00    +0.154 C 
ATOM     19  O   UNL     1      -0.888  -7.074  27.278  0.00  0.00    -0.296 OA
ENDBRANCH   9  13
BRANCH   8  20
ATOM     20  N   UNL     1       0.808  -3.826  28.997  0.00  0.00    -0.268 N 
ATOM     21  C   UNL     1       0.830  -3.517  27.590  0.00  0.00    +0.308 C 
ATOM     22  O   UNL     1      -0.113  -3.915  26.899  0.00  0.00    -0.252 OA
ATOM     23  N   UNL     1       1.889  -2.781  26.988  0.00  0.00    -0.268 N 
ATOM     24  H   UNL     1       1.561  -3.545  29.566  0.00  0.00    +0.156 HD
ATOM     25  H   UNL     1       2.652  -2.491  27.538  0.00  0.00    +0.156 HD
BRANCH  23  26
ATOM     26  C   UNL     1       1.860  -2.457  25.597  0.00  0.00    +0.052 C 
ATOM     27  C   UNL     1       1.156  -1.420  25.055  0.00  0.00    +0.015 C 
ATOM     28  C   UNL     1       1.184  -1.134  23.693  0.00  0.00    +0.001 C 
ATOM     29  C   UNL     1       1.931  -1.908  22.844  0.00  0.00    +0.000 C 
ATOM     30  C   UNL     1       2.652  -2.959  23.337  0.00  0.00    +0.001 C 
ATOM     31  C   UNL     1       2.605  -3.213  24.713  0.00  0.00    +0.015 C 
ENDBRANCH  23  26
ENDBRANCH   8  20
TORSDOF 3
