REMARK  Name = =
REMARK  6 active torsions:
REMARK  status: ('A' for Active; 'I' for Inactive)
REMARK    1  A    between atoms: O_1  and  P_2
REMARK    2  A    between atoms: O_1  and  P_6
REMARK    3  A    between atoms: P_2  and  O_4
REMARK    4  A    between atoms: P_2  and  O_5
REMARK    5  A    between atoms: P_6  and  O_8
REMARK    6  A    between atoms: P_6  and  O_9
REMARK                            x       y       z     vdW  Elec       q    Type
REMARK                         _______ _______ _______ _____ _____    ______ ____
ROOT
ATOM      1  O   UNL     1     -12.705 -44.589  29.091  0.00  0.00    -0.186 OA
ENDROOT
BRANCH   1   2
ATOM      2  P   UNL     1     -13.610 -44.308  30.467  0.00  0.00    +0.481 P 
ATOM      3  O   UNL     1     -15.032 -43.991  30.026  0.00  0.00    -0.227 OA
BRANCH   2   4
ATOM      4  O   UNL     1     -13.053 -43.026  31.390  0.00  0.00    -0.302 OA
ATOM      5  H   UNL     1     -12.146 -43.208  31.682  0.00  0.00    +0.222 HD
ENDBRANCH   2   4
BRANCH   2   6
ATOM      6  O   UNL     1     -13.673 -45.756  31.354  0.00  0.00    -0.302 OA
ATOM      7  H   UNL     1     -12.781 -45.991  31.653  0.00  0.00    +0.222 HD
ENDBRANCH   2   6
ENDBRANCH   1   2
BRANCH   1   8
ATOM      8  P   UNL     1     -11.073 -44.844  29.454  0.00  0.00    +0.481 P 
ATOM      9  O   UNL     1     -10.672 -46.154  28.838  0.00  0.00    -0.227 OA
BRANCH   8  10
ATOM     10  O   UNL     1     -10.211 -43.538  28.794  0.00  0.00    -0.302 OA
ATOM     11  H   UNL     1     -10.499 -42.714  29.217  0.00  0.00    +0.222 HD
ENDBRANCH   8  10
BRANCH   8  12
ATOM     12  O   UNL     1     -10.808 -44.947  31.118  0.00  0.00    -0.302 OA
ATOM     13  H   UNL     1     -11.307 -45.697  31.479  0.00  0.00    +0.222 HD
ENDBRANCH   8  12
ENDBRANCH   1   8
TORSDOF 6
