REMARK  Name = =
REMARK  0 active torsions:
REMARK  status: ('A' for Active; 'I' for Inactive)
REMARK                            x       y       z     vdW  Elec       q    Type
REMARK                         _______ _______ _______ _____ _____    ______ ____
ROOT
ATOM      1  C   UNL     1      -4.367  -4.305  30.738  0.00  0.00    +0.003 C 
ATOM      2  C   UNL     1      -3.700  -5.459  31.074  0.00  0.00    +0.040 C 
ATOM      3  C   UNL     1      -2.339  -5.602  30.776  0.00  0.00    +0.176 C 
ATOM      4  C   UNL     1      -1.684  -4.563  30.139  0.00  0.00    +0.176 C 
ATOM      5  C   UNL     1      -2.381  -3.401  29.808  0.00  0.00    +0.040 C 
ATOM      6  C   UNL     1      -3.721  -3.270  30.106  0.00  0.00    +0.003 C 
ATOM      7  O   UNL     1      -0.369  -4.982  29.977  0.00  0.00    -0.435 OA
ATOM      8  C   UNL     1      -0.134  -5.987  30.975  0.00  0.00    +0.429 C 
ATOM      9  O   UNL     1      -1.417  -6.621  30.985  0.00  0.00    -0.435 OA
ENDROOT
TORSDOF 0
