REMARK  Name = =
REMARK  1 active torsions:
REMARK  status: ('A' for Active; 'I' for Inactive)
REMARK    1  A    between atoms: N_1  and  C_12
REMARK                            x       y       z     vdW  Elec       q    Type
REMARK                         _______ _______ _______ _____ _____    ______ ____
ROOT
ATOM      1  N   UNL     1      -2.127  -6.072  30.623  0.00  0.00    -0.301 N 
ATOM      2  C   UNL     1      -2.250  -7.507  30.494  0.00  0.00    +0.096 C 
ATOM      3  C   UNL     1      -0.869  -8.162  30.396  0.00  0.00    +0.047 C 
ATOM      4  C   UNL     1      -0.235  -7.647  29.160  0.00  0.00    -0.023 C 
ATOM      5  C   UNL     1      -0.363  -6.282  28.953  0.00  0.00    -0.006 C 
ATOM      6  C   UNL     1       0.208  -5.754  27.822  0.00  0.00    -0.003 C 
ATOM      7  C   UNL     1       0.895  -6.512  26.899  0.00  0.00    -0.000 C 
ATOM      8  C   UNL     1       1.021  -7.868  27.108  0.00  0.00    -0.000 C 
ATOM      9  C   UNL     1       0.444  -8.424  28.257  0.00  0.00    -0.004 C 
ATOM     10  C   UNL     1      -1.078  -5.397  29.883  0.00  0.00    +0.117 C 
ENDROOT
BRANCH   1  12
ATOM     11  C   UNL     1      -3.608  -5.805  32.570  0.00  0.00    +0.018 C 
ATOM     12  C   UNL     1      -2.980  -5.280  31.432  0.00  0.00    +0.086 C 
ATOM     13  C   UNL     1      -3.228  -3.957  31.132  0.00  0.00    +0.190 C 
ATOM     14  C   UNL     1      -4.054  -3.161  31.894  0.00  0.00    +0.178 C 
ATOM     15  C   UNL     1      -4.670  -3.711  33.027  0.00  0.00    +0.040 C 
ATOM     16  C   UNL     1      -4.436  -5.027  33.346  0.00  0.00    +0.005 C 
ATOM     17  O   UNL     1      -4.078  -1.909  31.312  0.00  0.00    -0.435 OA
ATOM     18  C   UNL     1      -3.532  -1.987  30.006  0.00  0.00    +0.429 C 
ATOM     19  O   UNL     1      -2.753  -3.162  30.074  0.00  0.00    -0.433 OA
ENDBRANCH   1  12
TORSDOF 1
