REMARK  Name = =
REMARK  7 active torsions:
REMARK  status: ('A' for Active; 'I' for Inactive)
REMARK    1  A    between atoms: C_1  and  O_20
REMARK    2  A    between atoms: C_2  and  N_10
REMARK    3  A    between atoms: O_20  and  P_22
REMARK    4  A    between atoms: P_22  and  O_24
REMARK    5  A    between atoms: O_24  and  P_25
REMARK    6  A    between atoms: P_25  and  O_27
REMARK    7  A    between atoms: P_25  and  O_28
REMARK                            x       y       z     vdW  Elec       q    Type
REMARK                         _______ _______ _______ _____ _____    ______ ____
ROOT
ATOM      1  C   UNL     1      -1.524  -4.702  29.528  0.00  0.00    +0.164 C 
ATOM      2  C   UNL     1      -0.870  -3.573  29.047  0.00  0.00    +0.121 C 
ATOM      3  C   UNL     1      -1.534  -2.371  29.128  0.00  0.00    +0.193 C 
ATOM      4  C   UNL     1      -2.816  -2.304  29.678  0.00  0.00    +0.178 C 
ATOM      5  C   UNL     1      -3.465  -3.424  30.155  0.00  0.00    +0.043 C 
ATOM      6  C   UNL     1      -2.791  -4.622  30.068  0.00  0.00    +0.042 C 
ATOM      7  O   UNL     1      -3.258  -0.981  29.641  0.00  0.00    -0.435 OA
ATOM      8  C   UNL     1      -2.374  -0.293  28.776  0.00  0.00    +0.429 C 
ATOM      9  O   UNL     1      -1.180  -1.089  28.752  0.00  0.00    -0.433 OA
ENDROOT
BRANCH   2  10
ATOM     10  N   UNL     1       0.434  -3.639  28.489  0.00  0.00    -0.298 N 
ATOM     11  C   UNL     1       1.642  -3.566  29.262  0.00  0.00    +0.096 C 
ATOM     12  C   UNL     1       2.821  -4.017  28.424  0.00  0.00    +0.047 C 
ATOM     13  C   UNL     1       2.840  -3.119  27.222  0.00  0.00    -0.023 C 
ATOM     14  C   UNL     1       1.646  -3.023  26.537  0.00  0.00    -0.006 C 
ATOM     15  C   UNL     1       1.525  -2.241  25.426  0.00  0.00    -0.003 C 
ATOM     16  C   UNL     1       2.624  -1.538  24.989  0.00  0.00    -0.000 C 
ATOM     17  C   UNL     1       3.816  -1.635  25.675  0.00  0.00    -0.000 C 
ATOM     18  C   UNL     1       3.942  -2.430  26.805  0.00  0.00    -0.004 C 
ATOM     19  C   UNL     1       0.493  -3.789  27.031  0.00  0.00    +0.118 C 
ENDBRANCH   2  10
BRANCH   1  20
ATOM     20  O   UNL     1      -0.828  -5.896  29.431  0.00  0.00    -0.413 OA
BRANCH  20  22
ATOM     21  S   UNL     1       0.235  -6.408  31.997  0.00  0.00    +0.053 S 
ATOM     22  P   UNL     1      -0.798  -6.992  30.757  0.00  0.00    +0.462 P 
ATOM     23  O   UNL     1      -0.344  -8.361  30.273  0.00  0.00    -0.232 OA
BRANCH  22  24
ATOM     24  O   UNL     1      -2.361  -7.216  31.393  0.00  0.00    -0.190 OA
BRANCH  24  25
ATOM     25  P   UNL     1      -2.268  -8.528  32.461  0.00  0.00    +0.481 P 
ATOM     26  O   UNL     1      -2.772  -9.800  31.803  0.00  0.00    -0.227 OA
BRANCH  25  27
ATOM     27  O   UNL     1      -0.661  -8.739  32.903  0.00  0.00    -0.302 OA
ATOM     28  H   UNL     1      -0.333  -7.929  33.324  0.00  0.00    +0.222 HD
ENDBRANCH  25  27
BRANCH  25  29
ATOM     29  O   UNL     1      -3.251  -8.226  33.803  0.00  0.00    -0.302 OA
ATOM     30  H   UNL     1      -2.953  -7.416  34.246  0.00  0.00    +0.222 HD
ENDBRANCH  25  29
ENDBRANCH  24  25
ENDBRANCH  22  24
ENDBRANCH  20  22
ENDBRANCH   1  20
TORSDOF 7
