REMARK  Name = =
REMARK  0 active torsions:
REMARK  status: ('A' for Active; 'I' for Inactive)
REMARK                            x       y       z     vdW  Elec       q    Type
REMARK                         _______ _______ _______ _____ _____    ______ ____
ROOT
ATOM      1  N   UNL     1      -2.554  -2.917  31.145  0.00  0.00    -0.295 NA
ATOM      2  C   UNL     1      -3.941  -2.883  30.981  0.00  0.00    +0.086 C 
ATOM      3  C   UNL     1      -4.398  -4.224  30.391  0.00  0.00    +0.086 C 
ATOM      4  N   UNL     1      -3.624  -4.506  29.194  0.00  0.00    -0.295 NA
ATOM      5  C   UNL     1      -2.209  -4.579  29.472  0.00  0.00    +0.086 C 
ATOM      6  C   UNL     1      -1.768  -3.221  30.025  0.00  0.00    +0.086 C 
ATOM      7  H   UNL     1      -2.350  -3.617  31.858  0.00  0.00    +0.123 HD
ATOM      8  H   UNL     1      -3.930  -5.398  28.806  0.00  0.00    +0.123 HD
ENDROOT
TORSDOF 0
