REMARK  Name = =
REMARK  2 active torsions:
REMARK  status: ('A' for Active; 'I' for Inactive)
REMARK    1  A    between atoms: N_1  and  C_6
REMARK    2  A    between atoms: N_1  and  C_10
REMARK                            x       y       z     vdW  Elec       q    Type
REMARK                         _______ _______ _______ _____ _____    ______ ____
ROOT
ATOM      1  N   UNL     1      -4.900  -2.788  31.949  0.00  0.00    -0.238 N 
ATOM      2  C   UNL     1      -4.147  -2.011  31.042  0.00  0.00    +0.308 C 
ATOM      3  O   UNL     1      -3.166  -2.534  30.467  0.00  0.00    -0.265 OA
ENDROOT
BRANCH   1   6
ATOM      4  N   UNL     1      -7.768  -1.505  31.024  0.00  0.00    -0.294 NA
ATOM      5  C   UNL     1      -7.340  -2.545  31.950  0.00  0.00    +0.106 C 
ATOM      6  C   UNL     1      -6.044  -2.155  32.610  0.00  0.00    +0.153 C 
ATOM      7  N   UNL     1      -5.916  -0.728  32.530  0.00  0.00    -0.280 NA
ATOM      8  C   UNL     1      -7.172  -0.076  32.845  0.00  0.00    +0.087 C 
ATOM      9  C   UNL     1      -8.109  -0.271  31.688  0.00  0.00    +0.086 C 
ATOM     10  H   UNL     1      -7.010  -1.322  30.366  0.00  0.00    +0.123 HD
ATOM     11  H   UNL     1      -5.635  -0.471  31.584  0.00  0.00    +0.125 HD
ENDBRANCH   1   6
BRANCH   1  12
ATOM     12  C   UNL     1      -4.539  -4.125  32.187  0.00  0.00    +0.055 C 
ATOM     13  C   UNL     1      -4.304  -4.628  33.450  0.00  0.00    +0.015 C 
ATOM     14  C   UNL     1      -3.950  -5.944  33.652  0.00  0.00    +0.001 C 
ATOM     15  C   UNL     1      -3.821  -6.795  32.588  0.00  0.00    +0.000 C 
ATOM     16  C   UNL     1      -4.048  -6.324  31.320  0.00  0.00    +0.001 C 
ATOM     17  C   UNL     1      -4.402  -5.002  31.138  0.00  0.00    +0.015 C 
ENDBRANCH   1  12
TORSDOF 2
