REMARK  Name = =
REMARK  5 active torsions:
REMARK  status: ('A' for Active; 'I' for Inactive)
REMARK    1  A    between atoms: N_1  and  N_16
REMARK    2  A    between atoms: C_3  and  N_7
REMARK    3  A    between atoms: N_7  and  C_10
REMARK    4  A    between atoms: N_16  and  C_17
REMARK    5  A    between atoms: C_18  and  N_23
REMARK                            x       y       z     vdW  Elec       q    Type
REMARK                         _______ _______ _______ _____ _____    ______ ____
ROOT
ATOM      1  N   UNL     1       5.304  -5.448  24.710  0.00  0.00    -0.216 NA
ATOM      2  C   UNL     1       4.499  -6.106  25.657  0.00  0.00    +0.125 C 
ATOM      3  C   UNL     1       4.344  -7.578  25.467  0.00  0.00    +0.155 C 
ATOM      4  N   UNL     1       5.545  -8.167  24.865  0.00  0.00    -0.280 NA
ATOM      5  C   UNL     1       5.671  -7.598  23.510  0.00  0.00    +0.089 C 
ATOM      6  C   UNL     1       5.978  -6.159  23.705  0.00  0.00    +0.106 C 
ATOM      7  H   UNL     1       5.449  -9.181  24.812  0.00  0.00    +0.125 HD
ENDROOT
BRANCH   3   8
ATOM      8  N   UNL     1       3.999  -8.351  26.613  0.00  0.00    -0.238 N 
ATOM      9  C   UNL     1       5.081  -8.923  27.382  0.00  0.00    +0.308 C 
ATOM     10  O   UNL     1       4.845  -9.645  28.362  0.00  0.00    -0.265 OA
BRANCH   8  11
ATOM     11  C   UNL     1       2.708  -8.647  27.066  0.00  0.00    +0.055 C 
ATOM     12  C   UNL     1       2.068  -7.748  27.883  0.00  0.00    +0.015 C 
ATOM     13  C   UNL     1       0.795  -7.965  28.359  0.00  0.00    +0.001 C 
ATOM     14  C   UNL     1       0.150  -9.140  27.989  0.00  0.00    +0.000 C 
ATOM     15  C   UNL     1       0.792 -10.039  27.170  0.00  0.00    +0.001 C 
ATOM     16  C   UNL     1       2.068  -9.793  26.709  0.00  0.00    +0.015 C 
ENDBRANCH   8  11
ENDBRANCH   3   8
BRANCH   1  17
ATOM     17  N   UNL     1       6.038  -4.352  25.120  0.00  0.00    -0.234 NA
ATOM     18  H   UNL     1       6.998  -4.559  24.845  0.00  0.00    +0.142 HD
BRANCH  17  19
ATOM     19  C   UNL     1       5.831  -3.007  24.741  0.00  0.00    +0.158 C 
ATOM     20  C   UNL     1       5.007  -2.391  23.824  0.00  0.00    +0.112 C 
ATOM     21  C   UNL     1       5.544  -1.187  24.222  0.00  0.00    +0.213 C 
ATOM     22  O   UNL     1       5.368   0.011  23.895  0.00  0.00    -0.215 OA
ATOM     23  C   UNL     1       6.362  -1.808  25.132  0.00  0.00    +0.199 C 
ATOM     24  O   UNL     1       7.236  -1.396  25.973  0.00  0.00    -0.292 OA
BRANCH  20  25
ATOM     25  N   UNL     1       4.037  -2.863  22.899  0.00  0.00    -0.318 NA
ATOM     26  H   UNL     1       3.638  -2.073  22.392  0.00  0.00    +0.119 HD
ATOM     27  H   UNL     1       3.297  -3.352  23.402  0.00  0.00    +0.119 HD
ENDBRANCH  20  25
ENDBRANCH  17  19
ENDBRANCH   1  17
TORSDOF 5
