REMARK  Name = =
REMARK  9 active torsions:
REMARK  status: ('A' for Active; 'I' for Inactive)
REMARK    1  A    between atoms: N_1  and  N_22
REMARK    2  A    between atoms: C_3  and  N_7
REMARK    3  A    between atoms: N_7  and  C_10
REMARK    4  A    between atoms: C_11  and  O_16
REMARK    5  A    between atoms: O_16  and  C_17
REMARK    6  A    between atoms: C_17  and  O_19
REMARK    7  A    between atoms: O_19  and  C_20
REMARK    8  A    between atoms: N_22  and  C_23
REMARK    9  A    between atoms: C_24  and  N_29
REMARK                            x       y       z     vdW  Elec       q    Type
REMARK                         _______ _______ _______ _____ _____    ______ ____
ROOT
ATOM      1  N   UNL     1       6.280  -6.213  26.310  0.00  0.00    -0.217 NA
ATOM      2  C   UNL     1       5.438  -5.866  27.436  0.00  0.00    +0.125 C 
ATOM      3  C   UNL     1       4.033  -6.398  27.241  0.00  0.00    +0.155 C 
ATOM      4  N   UNL     1       3.654  -6.601  25.891  0.00  0.00    -0.280 NA
ATOM      5  C   UNL     1       4.372  -5.945  24.867  0.00  0.00    +0.089 C 
ATOM      6  C   UNL     1       5.745  -5.475  25.181  0.00  0.00    +0.106 C 
ATOM      7  H   UNL     1       2.681  -6.307  25.807  0.00  0.00    +0.125 HD
ENDROOT
BRANCH   3   8
ATOM      8  N   UNL     1       3.084  -5.473  27.843  0.00  0.00    -0.235 N 
ATOM      9  C   UNL     1       3.006  -4.166  27.295  0.00  0.00    +0.308 C 
ATOM     10  O   UNL     1       2.192  -3.360  27.804  0.00  0.00    -0.265 OA
BRANCH   8  11
ATOM     11  C   UNL     1       2.239  -5.771  28.938  0.00  0.00    +0.090 C 
ATOM     12  C   UNL     1       1.178  -6.602  28.758  0.00  0.00    +0.165 C 
ATOM     13  C   UNL     1       0.293  -6.918  29.803  0.00  0.00    +0.039 C 
ATOM     14  C   UNL     1       0.515  -6.366  31.047  0.00  0.00    +0.003 C 
ATOM     15  C   UNL     1       1.587  -5.518  31.260  0.00  0.00    +0.001 C 
ATOM     16  C   UNL     1       2.435  -5.231  30.203  0.00  0.00    +0.018 C 
BRANCH  12  17
ATOM     17  O   UNL     1       0.956  -7.159  27.510  0.00  0.00    -0.392 OA
BRANCH  17  18
ATOM     18  C   UNL     1       0.452  -8.473  27.479  0.00  0.00    +0.524 C 
ATOM     19  O   UNL     1      -0.315  -8.838  28.421  0.00  0.00    -0.202 OA
BRANCH  18  20
ATOM     20  O   UNL     1       0.733  -9.393  26.499  0.00  0.00    -0.353 OA
BRANCH  20  21
ATOM     21  C   UNL     1       0.491 -10.749  26.630  0.00  0.00    +0.427 C 
ATOM     22  O   UNL     1       0.094 -11.159  27.745  0.00  0.00    -0.237 OA
ENDBRANCH  20  21
ENDBRANCH  18  20
ENDBRANCH  17  18
ENDBRANCH  12  17
ENDBRANCH   8  11
ENDBRANCH   3   8
BRANCH   1  23
ATOM     23  N   UNL     1       6.252  -7.591  26.081  0.00  0.00    -0.239 NA
ATOM     24  H   UNL     1       5.650  -7.746  25.272  0.00  0.00    +0.142 HD
BRANCH  23  25
ATOM     25  C   UNL     1       7.484  -8.289  25.827  0.00  0.00    +0.128 C 
ATOM     26  C   UNL     1       8.804  -7.900  25.715  0.00  0.00    +0.145 C 
ATOM     27  C   UNL     1       9.181  -9.214  25.469  0.00  0.00    +0.197 C 
ATOM     28  O   UNL     1      10.265  -9.806  25.241  0.00  0.00    -0.292 OA
ATOM     29  C   UNL     1       7.858  -9.584  25.585  0.00  0.00    +0.214 C 
ATOM     30  O   UNL     1       7.268 -10.692  25.495  0.00  0.00    -0.215 OA
BRANCH  26  31
ATOM     31  N   UNL     1       9.491  -6.673  25.813  0.00  0.00    -0.314 NA
ATOM     32  H   UNL     1      10.113  -6.567  25.012  0.00  0.00    +0.119 HD
ATOM     33  H   UNL     1      10.039  -6.658  26.673  0.00  0.00    +0.119 HD
ENDBRANCH  26  31
ENDBRANCH  23  25
ENDBRANCH   1  23
TORSDOF 9
