REMARK  Name = =
REMARK  10 active torsions:
REMARK  status: ('A' for Active; 'I' for Inactive)
REMARK    1  A    between atoms: N_1  and  C_6
REMARK    2  A    between atoms: N_1  and  C_18
REMARK    3  A    between atoms: N_4  and  N_10
REMARK    4  A    between atoms: N_10  and  C_11
REMARK    5  A    between atoms: C_12  and  N_17
REMARK    6  A    between atoms: C_19  and  O_30
REMARK    7  A    between atoms: C_21  and  N_24
REMARK    8  A    between atoms: O_30  and  C_31
REMARK    9  A    between atoms: C_31  and  O_33
REMARK   10  A    between atoms: O_33  and  C_34
REMARK                            x       y       z     vdW  Elec       q    Type
REMARK                         _______ _______ _______ _____ _____    ______ ____
ROOT
ATOM      1  N   UNL     1       2.610  -6.027  26.374  0.00  0.00    -0.235 N 
ATOM      2  C   UNL     1       1.286  -5.572  26.217  0.00  0.00    +0.308 C 
ATOM      3  O   UNL     1       1.074  -4.327  26.180  0.00  0.00    -0.265 OA
ENDROOT
BRANCH   1   6
ATOM      4  N   UNL     1       4.747  -3.446  27.897  0.00  0.00    -0.203 NA
ATOM      5  C   UNL     1       3.649  -4.362  27.743  0.00  0.00    +0.129 C 
ATOM      6  C   UNL     1       3.709  -5.099  26.420  0.00  0.00    +0.156 C 
ATOM      7  N   UNL     1       4.989  -5.702  26.201  0.00  0.00    -0.280 NA
ATOM      8  C   UNL     1       5.988  -5.415  27.188  0.00  0.00    +0.089 C 
ATOM      9  C   UNL     1       6.031  -3.994  27.644  0.00  0.00    +0.109 C 
ATOM     10  H   UNL     1       5.338  -5.378  25.299  0.00  0.00    +0.125 HD
BRANCH   4  11
ATOM     11  N   UNL     1       4.523  -2.158  27.485  0.00  0.00    -0.271 N 
ATOM     12  H   UNL     1       4.462  -1.413  28.126  0.00  0.00    +0.167 HD
BRANCH  11  13
ATOM     13  C   UNL     1       4.382  -1.951  26.079  0.00  0.00    +0.117 C 
ATOM     14  C   UNL     1       3.378  -1.833  25.152  0.00  0.00    +0.102 C 
ATOM     15  C   UNL     1       4.310  -1.687  24.149  0.00  0.00    +0.250 C 
ATOM     16  O   UNL     1       4.284  -1.517  22.912  0.00  0.00    -0.282 OA
ATOM     17  C   UNL     1       5.333  -1.800  25.057  0.00  0.00    +0.251 C 
ATOM     18  O   UNL     1       6.600  -1.790  25.061  0.00  0.00    -0.282 OA
BRANCH  14  19
ATOM     19  N   UNL     1       1.941  -1.848  25.218  0.00  0.00    -0.353 N 
ATOM     20  H   UNL     1       1.489  -1.973  26.084  0.00  0.00    +0.142 HD
ATOM     21  H   UNL     1       1.409  -1.734  24.397  0.00  0.00    +0.142 HD
ENDBRANCH  14  19
ENDBRANCH  11  13
ENDBRANCH   4  11
ENDBRANCH   1   6
BRANCH   1  22
ATOM     22  C   UNL     1       2.797  -7.466  26.466  0.00  0.00    +0.090 C 
ATOM     23  C   UNL     1       2.397  -8.195  27.556  0.00  0.00    +0.167 C 
ATOM     24  C   UNL     1       2.586  -9.562  27.563  0.00  0.00    +0.054 C 
ATOM     25  C   UNL     1       3.164 -10.249  26.519  0.00  0.00    +0.051 C 
ATOM     26  C   UNL     1       3.558  -9.492  25.437  0.00  0.00    +0.016 C 
ATOM     27  C   UNL     1       3.380  -8.126  25.405  0.00  0.00    +0.019 C 
BRANCH  25  28
ATOM     28  N   UNL     1       3.307 -11.627  26.603  0.00  0.00    -0.304 N 
ATOM     29  C   UNL     1       4.549 -12.227  26.446  0.00  0.00    +0.110 C 
ATOM     30  C   UNL     1       4.524 -13.599  25.792  0.00  0.00    +0.110 C 
ATOM     31  N   UNL     1       3.342 -13.791  24.976  0.00  0.00    -0.214 NA
ATOM     32  C   UNL     1       2.223 -13.745  25.909  0.00  0.00    +0.110 C 
ATOM     33  C   UNL     1       2.144 -12.414  26.602  0.00  0.00    +0.110 C 
ENDBRANCH  25  28
BRANCH  23  34
ATOM     34  O   UNL     1       1.806  -7.531  28.621  0.00  0.00    -0.392 OA
BRANCH  34  35
ATOM     35  C   UNL     1       0.461  -7.748  28.989  0.00  0.00    +0.524 C 
ATOM     36  O   UNL     1      -0.355  -7.979  28.090  0.00  0.00    -0.202 OA
BRANCH  35  37
ATOM     37  O   UNL     1       0.092  -7.704  30.341  0.00  0.00    -0.353 OA
BRANCH  37  38
ATOM     38  C   UNL     1      -1.085  -7.098  30.692  0.00  0.00    +0.427 C 
ATOM     39  O   UNL     1      -1.260  -5.899  30.340  0.00  0.00    -0.237 OA
ENDBRANCH  37  38
ENDBRANCH  35  37
ENDBRANCH  34  35
ENDBRANCH  23  34
ENDBRANCH   1  22
TORSDOF 10
