REMARK  Name = =
REMARK  11 active torsions:
REMARK  status: ('A' for Active; 'I' for Inactive)
REMARK    1  A    between atoms: N_1  and  N_28
REMARK    2  A    between atoms: C_3  and  N_7
REMARK    3  A    between atoms: N_7  and  C_10
REMARK    4  A    between atoms: C_11  and  O_22
REMARK    5  A    between atoms: C_13  and  N_16
REMARK    6  A    between atoms: O_22  and  C_23
REMARK    7  A    between atoms: C_23  and  O_25
REMARK    8  A    between atoms: O_25  and  C_26
REMARK    9  A    between atoms: N_28  and  C_29
REMARK   10  A    between atoms: C_30  and  N_35
REMARK   11  A    between atoms: N_35  and  C_36
REMARK                            x       y       z     vdW  Elec       q    Type
REMARK                         _______ _______ _______ _____ _____    ______ ____
ROOT
ATOM      1  N   UNL     1       2.995  -3.538  28.381  0.00  0.00    -0.216 NA
ATOM      2  C   UNL     1       3.473  -3.888  27.091  0.00  0.00    +0.125 C 
ATOM      3  C   UNL     1       3.964  -5.257  26.860  0.00  0.00    +0.155 C 
ATOM      4  N   UNL     1       3.348  -6.279  27.677  0.00  0.00    -0.280 NA
ATOM      5  C   UNL     1       2.853  -5.834  28.925  0.00  0.00    +0.089 C 
ATOM      6  C   UNL     1       2.064  -4.552  28.829  0.00  0.00    +0.106 C 
ATOM      7  H   UNL     1       4.044  -7.004  27.854  0.00  0.00    +0.125 HD
ENDROOT
BRANCH   3   8
ATOM      8  N   UNL     1       3.652  -5.624  25.496  0.00  0.00    -0.235 N 
ATOM      9  C   UNL     1       2.297  -5.527  25.079  0.00  0.00    +0.308 C 
ATOM     10  O   UNL     1       1.947  -5.861  23.909  0.00  0.00    -0.265 OA
BRANCH   8  11
ATOM     11  C   UNL     1       4.666  -6.091  24.633  0.00  0.00    +0.090 C 
ATOM     12  C   UNL     1       5.371  -5.264  23.801  0.00  0.00    +0.167 C 
ATOM     13  C   UNL     1       6.342  -5.835  22.977  0.00  0.00    +0.054 C 
ATOM     14  C   UNL     1       6.584  -7.189  23.002  0.00  0.00    +0.051 C 
ATOM     15  C   UNL     1       5.880  -8.026  23.835  0.00  0.00    +0.016 C 
ATOM     16  C   UNL     1       4.921  -7.477  24.652  0.00  0.00    +0.019 C 
BRANCH  14  17
ATOM     17  N   UNL     1       7.570  -7.711  22.158  0.00  0.00    -0.304 N 
ATOM     18  C   UNL     1       7.694  -9.136  22.214  0.00  0.00    +0.110 C 
ATOM     19  C   UNL     1       8.652  -9.631  21.137  0.00  0.00    +0.110 C 
ATOM     20  N   UNL     1       8.027  -9.432  19.863  0.00  0.00    -0.214 NA
ATOM     21  C   UNL     1       7.200  -8.267  19.805  0.00  0.00    +0.110 C 
ATOM     22  C   UNL     1       7.559  -7.206  20.820  0.00  0.00    +0.110 C 
ENDBRANCH  14  17
BRANCH  12  23
ATOM     23  O   UNL     1       5.131  -3.905  23.777  0.00  0.00    -0.392 OA
BRANCH  23  24
ATOM     24  C   UNL     1       5.978  -3.058  24.463  0.00  0.00    +0.524 C 
ATOM     25  O   UNL     1       6.880  -3.559  25.170  0.00  0.00    -0.202 OA
BRANCH  24  26
ATOM     26  O   UNL     1       5.807  -1.691  24.349  0.00  0.00    -0.353 OA
BRANCH  26  27
ATOM     27  C   UNL     1       6.670  -0.866  25.056  0.00  0.00    +0.427 C 
ATOM     28  O   UNL     1       7.568  -1.405  25.771  0.00  0.00    -0.237 OA
ENDBRANCH  26  27
ENDBRANCH  24  26
ENDBRANCH  23  24
ENDBRANCH  12  23
ENDBRANCH   8  11
ENDBRANCH   3   8
BRANCH   1  29
ATOM     29  N   UNL     1       2.227  -2.353  28.231  0.00  0.00    -0.234 NA
ATOM     30  H   UNL     1       2.784  -1.723  27.654  0.00  0.00    +0.142 HD
BRANCH  29  31
ATOM     31  C   UNL     1       0.932  -2.365  27.666  0.00  0.00    +0.162 C 
ATOM     32  C   UNL     1      -0.354  -2.343  28.228  0.00  0.00    +0.131 C 
ATOM     33  C   UNL     1      -0.848  -2.386  26.944  0.00  0.00    +0.217 C 
ATOM     34  O   UNL     1      -2.027  -2.403  26.441  0.00  0.00    -0.214 OA
ATOM     35  C   UNL     1       0.418  -2.407  26.394  0.00  0.00    +0.199 C 
ATOM     36  O   UNL     1       0.831  -2.449  25.203  0.00  0.00    -0.292 OA
BRANCH  32  37
ATOM     37  N   UNL     1      -0.840  -2.295  29.574  0.00  0.00    -0.314 N 
ATOM     38  H   UNL     1      -0.354  -1.790  30.266  0.00  0.00    +0.148 HD
BRANCH  37  39
ATOM     39  C   UNL     1      -2.032  -2.987  29.890  0.00  0.00    +0.150 C 
ATOM     40  N   UNL     1      -2.750  -3.697  29.012  0.00  0.00    -0.133 NA
ATOM     41  N   UNL     1      -3.863  -4.345  29.295  0.00  0.00    -0.145 NA
ATOM     42  C   UNL     1      -4.380  -4.339  30.535  0.00  0.00    +0.122 C 
ATOM     43  C   UNL     1      -3.714  -3.635  31.509  0.00  0.00    +0.025 C 
ATOM     44  C   UNL     1      -2.553  -2.967  31.191  0.00  0.00    +0.038 C 
ENDBRANCH  37  39
ENDBRANCH  32  37
ENDBRANCH  29  31
ENDBRANCH   1  29
TORSDOF 11
