REMARK  Name = =
REMARK  3 active torsions:
REMARK  status: ('A' for Active; 'I' for Inactive)
REMARK    1  A    between atoms: C_1  and  C_7
REMARK    2  A    between atoms: C_3  and  N_6
REMARK    3  A    between atoms: C_7  and  C_9
REMARK                            x       y       z     vdW  Elec       q    Type
REMARK                         _______ _______ _______ _____ _____    ______ ____
ROOT
ATOM      1  C   UNL     1      -1.114  -5.551  30.415  0.00  0.00    +0.102 C 
ATOM      2  C   UNL     1       0.224  -5.306  30.626  0.00  0.00    +0.074 C 
ATOM      3  C   UNL     1       0.891  -6.512  30.556  0.00  0.00    +0.223 C 
ATOM      4  O   UNL     1      -0.013  -7.417  30.315  0.00  0.00    -0.339 OA
ATOM      5  N   UNL     1      -1.205  -6.880  30.227  0.00  0.00    -0.080 NA
ENDROOT
BRANCH   3   6
ATOM      6  N   UNL     1       2.303  -6.678  30.722  0.00  0.00    -0.327 N 
ATOM      7  H   UNL     1       2.873  -5.896  30.902  0.00  0.00    +0.145 HD
ATOM      8  H   UNL     1       2.704  -7.575  30.656  0.00  0.00    +0.145 HD
ENDBRANCH   3   6
BRANCH   1   9
ATOM      9  C   UNL     1      -2.196  -4.525  30.406  0.00  0.00    +0.049 C 
BRANCH   9  11
ATOM     10  C   UNL     1      -4.569  -4.011  30.470  0.00  0.00    +0.000 C 
ATOM     11  C   UNL     1      -3.544  -5.130  30.708  0.00  0.00    +0.006 C 
ATOM     12  C   UNL     1      -3.678  -5.482  32.177  0.00  0.00    +0.000 C 
ENDBRANCH   9  11
ENDBRANCH   1   9
TORSDOF 3
