REMARK  Name = =
REMARK  8 active torsions:
REMARK  status: ('A' for Active; 'I' for Inactive)
REMARK    1  A    between atoms: N_1  and  C_4
REMARK    2  A    between atoms: N_1  and  C_11
REMARK    3  A    between atoms: C_2  and  C_7
REMARK    4  A    between atoms: C_7  and  C_9
REMARK    5  A    between atoms: C_11  and  C_12
REMARK    6  A    between atoms: C_12  and  O_13
REMARK    7  A    between atoms: C_12  and  C_14
REMARK    8  A    between atoms: C_14  and  O_16
REMARK                            x       y       z     vdW  Elec       q    Type
REMARK                         _______ _______ _______ _____ _____    ______ ____
ROOT
ATOM      1  N   UNL     1      -3.866  -3.464  30.302  0.00  0.00    -0.299 N 
ATOM      2  H   UNL     1      -3.858  -2.768  29.606  0.00  0.00    +0.150 HD
ENDROOT
BRANCH   1   5
ATOM      3  C   UNL     1      -1.405  -6.014  29.580  0.00  0.00    +0.102 C 
ATOM      4  C   UNL     1      -1.996  -4.806  29.271  0.00  0.00    +0.074 C 
ATOM      5  C   UNL     1      -2.991  -4.548  30.190  0.00  0.00    +0.227 C 
ATOM      6  O   UNL     1      -2.968  -5.585  31.005  0.00  0.00    -0.339 OA
ATOM      7  N   UNL     1      -2.071  -6.439  30.681  0.00  0.00    -0.080 NA
BRANCH   3   8
ATOM      8  C   UNL     1      -0.307  -6.695  28.888  0.00  0.00    +0.049 C 
BRANCH   8  10
ATOM      9  C   UNL     1       2.028  -7.361  28.735  0.00  0.00    +0.000 C 
ATOM     10  C   UNL     1       1.032  -6.514  29.528  0.00  0.00    +0.006 C 
ATOM     11  C   UNL     1       1.517  -5.103  29.523  0.00  0.00    +0.000 C 
ENDBRANCH   8  10
ENDBRANCH   3   8
ENDBRANCH   1   5
BRANCH   1  12
ATOM     12  C   UNL     1      -4.780  -3.338  31.409  0.00  0.00    +0.131 C 
BRANCH  12  13
ATOM     13  C   UNL     1      -5.424  -1.951  31.438  0.00  0.00    +0.229 C 
BRANCH  13  14
ATOM     14  O   UNL     1      -4.456  -0.970  31.471  0.00  0.00    -0.373 OA
ATOM     15  H   UNL     1      -3.859  -1.079  30.714  0.00  0.00    +0.211 HD
ENDBRANCH  13  14
BRANCH  13  16
ATOM     16  C   UNL     1      -6.352  -1.824  32.568  0.00  0.00    +0.343 C 
ATOM     17  O   UNL     1      -7.310  -2.646  32.664  0.00  0.00    -0.248 OA
BRANCH  16  18
ATOM     18  O   UNL     1      -6.247  -0.850  33.552  0.00  0.00    -0.478 OA
ATOM     19  H   UNL     1      -5.552  -0.222  33.518  0.00  0.00    +0.295 HD
ENDBRANCH  16  18
ENDBRANCH  13  16
ENDBRANCH  12  13
ENDBRANCH   1  12
TORSDOF 8
