REMARK  Name = =
REMARK  13 active torsions:
REMARK  status: ('A' for Active; 'I' for Inactive)
REMARK    1  A    between atoms: C_1  and  C_2
REMARK    2  A    between atoms: C_1  and  C_15
REMARK    3  A    between atoms: C_4  and  N_7
REMARK    4  A    between atoms: N_7  and  C_8
REMARK    5  A    between atoms: C_8  and  C_9
REMARK    6  A    between atoms: C_9  and  O_10
REMARK    7  A    between atoms: C_9  and  C_11
REMARK    8  A    between atoms: C_11  and  O_13
REMARK    9  A    between atoms: C_15  and  C_16
REMARK   10  A    between atoms: C_16  and  N_17
REMARK   11  A    between atoms: N_17  and  C_18
REMARK   12  A    between atoms: C_19  and  C_25
REMARK   13  A    between atoms: C_25  and  O_26
REMARK                            x       y       z     vdW  Elec       q    Type
REMARK                         _______ _______ _______ _____ _____    ______ ____
ROOT
ATOM      1  C   UNL     1       1.804  -8.528  25.227  0.00  0.00    +0.051 C 
ENDROOT
BRANCH   1   2
ATOM      2  C   UNL     1       2.279  -7.301  24.567  0.00  0.00    +0.102 C 
ATOM      3  C   UNL     1       3.101  -6.283  25.070  0.00  0.00    +0.074 C 
ATOM      4  C   UNL     1       3.272  -5.333  24.081  0.00  0.00    +0.227 C 
ATOM      5  O   UNL     1       2.598  -5.755  23.058  0.00  0.00    -0.339 OA
ATOM      6  N   UNL     1       2.015  -6.879  23.297  0.00  0.00    -0.080 NA
BRANCH   4   7
ATOM      7  N   UNL     1       4.019  -4.136  24.137  0.00  0.00    -0.299 N 
ATOM      8  H   UNL     1       4.883  -4.072  23.669  0.00  0.00    +0.150 HD
BRANCH   7   9
ATOM      9  C   UNL     1       3.516  -3.004  24.882  0.00  0.00    +0.131 C 
BRANCH   9  10
ATOM     10  C   UNL     1       4.159  -2.962  26.252  0.00  0.00    +0.229 C 
BRANCH  10  11
ATOM     11  O   UNL     1       3.585  -1.952  27.016  0.00  0.00    -0.373 OA
ATOM     12  H   UNL     1       2.651  -2.160  27.178  0.00  0.00    +0.211 HD
ENDBRANCH  10  11
BRANCH  10  13
ATOM     13  C   UNL     1       5.578  -2.587  26.041  0.00  0.00    +0.343 C 
ATOM     14  O   UNL     1       6.357  -3.457  25.588  0.00  0.00    -0.248 OA
BRANCH  13  15
ATOM     15  O   UNL     1       6.102  -1.334  26.312  0.00  0.00    -0.478 OA
ATOM     16  H   UNL     1       5.549  -0.658  26.652  0.00  0.00    +0.295 HD
ENDBRANCH  13  15
ENDBRANCH  10  13
ENDBRANCH   9  10
ENDBRANCH   7   9
ENDBRANCH   4   7
ENDBRANCH   1   2
BRANCH   1  18
ATOM     17  C   UNL     1       3.470  -9.552  26.780  0.00  0.00    +0.002 C 
ATOM     18  C   UNL     1       2.299  -8.657  26.678  0.00  0.00    +0.022 C 
BRANCH  18  19
ATOM     19  C   UNL     1       1.132  -8.930  27.583  0.00  0.00    +0.069 C 
BRANCH  19  20
ATOM     20  N   UNL     1       0.429  -7.853  28.132  0.00  0.00    -0.298 NA
ATOM     21  H   UNL     1      -0.566  -8.062  28.054  0.00  0.00    +0.123 HD
BRANCH  20  22
ATOM     22  C   UNL     1       0.696  -7.541  29.488  0.00  0.00    +0.056 C 
ATOM     23  C   UNL     1       0.842  -6.013  29.666  0.00  0.00    +0.044 C 
ATOM     24  C   UNL     1      -0.166  -5.588  30.671  0.00  0.00    +0.004 C 
ATOM     25  C   UNL     1      -1.586  -5.661  30.163  0.00  0.00    +0.000 C 
ATOM     26  C   UNL     1      -1.675  -7.111  29.729  0.00  0.00    +0.001 C 
ATOM     27  C   UNL     1      -0.502  -7.806  30.386  0.00  0.00    +0.015 C 
ATOM     28  C   UNL     1      -0.193  -6.870  31.535  0.00  0.00    +0.001 C 
BRANCH  23  29
ATOM     29  C   UNL     1       0.809  -5.304  28.353  0.00  0.00    +0.138 C 
BRANCH  29  30
ATOM     30  O   UNL     1       1.741  -4.270  28.332  0.00  0.00    -0.382 OA
ATOM     31  H   UNL     1       1.706  -3.821  27.473  0.00  0.00    +0.210 HD
ENDBRANCH  29  30
ENDBRANCH  23  29
ENDBRANCH  20  22
ENDBRANCH  19  20
ENDBRANCH  18  19
ENDBRANCH   1  18
TORSDOF 13
