REMARK  Name = =
REMARK  16 active torsions:
REMARK  status: ('A' for Active; 'I' for Inactive)
REMARK    1  A    between atoms: C_1  and  C_2
REMARK    2  A    between atoms: C_1  and  C_15
REMARK    3  A    between atoms: C_1  and  C_26
REMARK    4  A    between atoms: C_2  and  C_3
REMARK    5  A    between atoms: C_5  and  N_8
REMARK    6  A    between atoms: N_8  and  C_9
REMARK    7  A    between atoms: C_9  and  C_10
REMARK    8  A    between atoms: C_10  and  C_11
REMARK    9  A    between atoms: C_10  and  O_14
REMARK   10  A    between atoms: C_11  and  O_13
REMARK   11  A    between atoms: C_15  and  N_16
REMARK   12  A    between atoms: N_16  and  C_17
REMARK   13  A    between atoms: C_18  and  C_24
REMARK   14  A    between atoms: C_24  and  O_25
REMARK   15  A    between atoms: C_26  and  N_33
REMARK   16  A    between atoms: C_27  and  C_35
REMARK                            x       y       z     vdW  Elec       q    Type
REMARK                         _______ _______ _______ _____ _____    ______ ____
ROOT
ATOM      1  C   UNL     1       2.324  -6.431  24.235  0.00  0.00    +0.038 C 
ENDROOT
BRANCH   1   2
ATOM      2  C   UNL     1       3.076  -5.377  24.982  0.00  0.00    +0.070 C 
BRANCH   2   3
ATOM      3  N   UNL     1       2.523  -4.886  26.170  0.00  0.00    -0.298 NA
ATOM      4  H   UNL     1       2.595  -5.619  26.876  0.00  0.00    +0.123 HD
BRANCH   3   5
ATOM      5  C   UNL     1       3.138  -3.703  26.698  0.00  0.00    +0.056 C 
ATOM      6  C   UNL     1       2.810  -3.406  28.132  0.00  0.00    +0.044 C 
ATOM      7  C   UNL     1       1.581  -2.571  28.145  0.00  0.00    +0.004 C 
ATOM      8  C   UNL     1       1.980  -1.101  27.948  0.00  0.00    +0.000 C 
ATOM      9  C   UNL     1       2.742  -1.232  26.620  0.00  0.00    +0.001 C 
ATOM     10  C   UNL     1       2.365  -2.547  26.028  0.00  0.00    +0.015 C 
ATOM     11  C   UNL     1       1.016  -2.800  26.731  0.00  0.00    +0.001 C 
BRANCH   6  12
ATOM     12  C   UNL     1       2.802  -4.564  29.066  0.00  0.00    +0.138 C 
BRANCH  12  13
ATOM     13  O   UNL     1       2.349  -4.056  30.311  0.00  0.00    -0.382 OA
ATOM     14  H   UNL     1       2.324  -4.774  30.963  0.00  0.00    +0.210 HD
ENDBRANCH  12  13
ENDBRANCH   6  12
ENDBRANCH   3   5
ENDBRANCH   2   3
ENDBRANCH   1   2
BRANCH   1  15
ATOM     15  C   UNL     1       2.490  -7.821  24.749  0.00  0.00    +0.074 C 
BRANCH  15  22
ATOM     16  C   UNL     1       4.371  -8.955  25.554  0.00  0.00    +0.073 C 
ATOM     17  C   UNL     1       4.581  -9.223  24.102  0.00  0.00    +0.019 C 
ATOM     18  C   UNL     1       3.962 -10.247  26.277  0.00  0.00    +0.157 C 
ATOM     19  O   UNL     1       4.197 -10.025  27.620  0.00  0.00    -0.351 OA
ATOM     20  C   UNL     1       3.330  -9.055  28.091  0.00  0.00    +0.159 C 
ATOM     21  C   UNL     1       2.588  -8.315  27.034  0.00  0.00    +0.105 C 
ATOM     22  N   UNL     1       3.382  -7.977  25.869  0.00  0.00    -0.271 NA
BRANCH  16  24
ATOM     23  C   UNL     1       6.863  -9.193  25.455  0.00  0.00    +0.001 C 
ATOM     24  C   UNL     1       5.713  -8.505  26.122  0.00  0.00    +0.017 C 
ENDBRANCH  16  24
ENDBRANCH  15  22
ENDBRANCH   1  15
BRANCH   1  25
ATOM     25  C   UNL     1       2.846  -6.437  22.799  0.00  0.00    +0.052 C 
BRANCH  25  26
ATOM     26  C   UNL     1       2.557  -5.135  22.118  0.00  0.00    +0.102 C 
ATOM     27  C   UNL     1       3.467  -4.177  21.725  0.00  0.00    +0.074 C 
ATOM     28  C   UNL     1       2.755  -3.126  21.129  0.00  0.00    +0.227 C 
ATOM     29  O   UNL     1       1.505  -3.481  21.187  0.00  0.00    -0.339 OA
ATOM     30  N   UNL     1       1.354  -4.640  21.754  0.00  0.00    -0.080 NA
BRANCH  28  31
ATOM     31  N   UNL     1       3.305  -1.938  20.582  0.00  0.00    -0.299 N 
ATOM     32  H   UNL     1       3.770  -1.972  19.715  0.00  0.00    +0.150 HD
BRANCH  31  33
ATOM     33  C   UNL     1       3.192  -0.686  21.279  0.00  0.00    +0.131 C 
BRANCH  33  34
ATOM     34  C   UNL     1       4.433  -0.437  22.083  0.00  0.00    +0.229 C 
BRANCH  34  35
ATOM     35  O   UNL     1       4.575  -1.227  23.196  0.00  0.00    -0.373 OA
ATOM     36  H   UNL     1       4.536  -2.161  22.937  0.00  0.00    +0.211 HD
ENDBRANCH  34  35
BRANCH  34  37
ATOM     37  C   UNL     1       4.487   1.026  22.433  0.00  0.00    +0.343 C 
ATOM     38  O   UNL     1       5.131   1.381  23.439  0.00  0.00    -0.248 OA
BRANCH  37  39
ATOM     39  O   UNL     1       3.832   1.935  21.647  0.00  0.00    -0.478 OA
ATOM     40  H   UNL     1       3.354   1.646  20.895  0.00  0.00    +0.295 HD
ENDBRANCH  37  39
ENDBRANCH  34  37
ENDBRANCH  33  34
ENDBRANCH  31  33
ENDBRANCH  28  31
ENDBRANCH  25  26
ENDBRANCH   1  25
TORSDOF 16
