REMARK  Name = =
REMARK  20 active torsions:
REMARK  status: ('A' for Active; 'I' for Inactive)
REMARK    1  A    between atoms: C_1  and  C_2
REMARK    2  A    between atoms: C_1  and  C_15
REMARK    3  A    between atoms: C_1  and  C_36
REMARK    4  A    between atoms: C_2  and  C_3
REMARK    5  A    between atoms: C_5  and  N_8
REMARK    6  A    between atoms: N_8  and  C_9
REMARK    7  A    between atoms: C_9  and  C_10
REMARK    8  A    between atoms: C_10  and  C_11
REMARK    9  A    between atoms: C_10  and  O_14
REMARK   10  A    between atoms: C_11  and  O_13
REMARK   11  A    between atoms: C_15  and  N_16
REMARK   12  A    between atoms: N_16  and  C_17
REMARK   13  A    between atoms: C_18  and  C_34
REMARK   14  A    between atoms: C_23  and  C_24
REMARK   15  A    between atoms: C_24  and  C_25
REMARK   16  A    between atoms: C_25  and  N_26
REMARK   17  A    between atoms: N_26  and  C_27
REMARK   18  A    between atoms: C_34  and  O_35
REMARK   19  A    between atoms: C_36  and  N_43
REMARK   20  A    between atoms: C_37  and  C_45
REMARK                            x       y       z     vdW  Elec       q    Type
REMARK                         _______ _______ _______ _____ _____    ______ ____
ROOT
ATOM      1  C   UNL     1       4.079  -6.148  24.484  0.00  0.00    +0.038 C 
ENDROOT
BRANCH   1   2
ATOM      2  C   UNL     1       3.990  -7.635  23.965  0.00  0.00    +0.070 C 
BRANCH   2   3
ATOM      3  N   UNL     1       4.113  -8.518  25.042  0.00  0.00    -0.298 NA
ATOM      4  H   UNL     1       3.867  -7.993  25.881  0.00  0.00    +0.123 HD
BRANCH   3   5
ATOM      5  C   UNL     1       3.353  -9.719  25.074  0.00  0.00    +0.056 C 
ATOM      6  C   UNL     1       1.934  -9.751  25.378  0.00  0.00    +0.044 C 
ATOM      7  C   UNL     1       1.845 -10.131  26.853  0.00  0.00    +0.004 C 
ATOM      8  C   UNL     1       2.698  -9.071  27.570  0.00  0.00    +0.000 C 
ATOM      9  C   UNL     1       4.134  -9.500  27.335  0.00  0.00    +0.001 C 
ATOM     10  C   UNL     1       3.943 -10.569  26.228  0.00  0.00    +0.015 C 
ATOM     11  C   UNL     1       2.820 -11.266  26.916  0.00  0.00    +0.003 C 
BRANCH  11  12
ATOM     12  C   UNL     1       2.458 -12.615  26.650  0.00  0.00    +0.021 C 
BRANCH  12  13
ATOM     13  C   UNL     1       3.369 -13.697  26.273  0.00  0.00    +0.088 C 
BRANCH  13  14
ATOM     14  N   UNL     1       3.146 -13.978  24.838  0.00  0.00    -0.317 N 
ATOM     15  H   UNL     1       3.660 -14.710  24.426  0.00  0.00    +0.148 HD
BRANCH  14  16
ATOM     16  C   UNL     1       2.250 -13.268  24.029  0.00  0.00    +0.150 C 
ATOM     17  C   UNL     1       0.878 -13.286  24.141  0.00  0.00    +0.037 C 
ATOM     18  C   UNL     1       0.039 -12.563  23.289  0.00  0.00    +0.019 C 
ATOM     19  C   UNL     1       0.657 -11.815  22.308  0.00  0.00    +0.081 C 
ATOM     20  C   UNL     1      -0.171 -11.012  21.355  0.00  0.00    +0.054 C 
ATOM     21  N   UNL     1       2.000 -11.799  22.198  0.00  0.00    -0.151 NA
ATOM     22  N   UNL     1       2.754 -12.495  23.023  0.00  0.00    -0.133 NA
ENDBRANCH  14  16
ENDBRANCH  13  14
ENDBRANCH  12  13
ENDBRANCH  11  12
BRANCH   6  23
ATOM     23  C   UNL     1       0.966  -8.729  24.999  0.00  0.00    +0.138 C 
BRANCH  23  24
ATOM     24  O   UNL     1       0.998  -8.364  23.644  0.00  0.00    -0.382 OA
ATOM     25  H   UNL     1       0.327  -7.684  23.477  0.00  0.00    +0.210 HD
ENDBRANCH  23  24
ENDBRANCH   6  23
ENDBRANCH   3   5
ENDBRANCH   2   3
ENDBRANCH   1   2
BRANCH   1  26
ATOM     26  C   UNL     1       3.796  -6.234  25.933  0.00  0.00    +0.074 C 
BRANCH  26  33
ATOM     27  C   UNL     1       4.098  -4.351  27.379  0.00  0.00    +0.073 C 
ATOM     28  C   UNL     1       5.560  -4.584  27.098  0.00  0.00    +0.019 C 
ATOM     29  C   UNL     1       3.863  -4.898  28.805  0.00  0.00    +0.157 C 
ATOM     30  O   UNL     1       2.678  -4.290  29.233  0.00  0.00    -0.351 OA
ATOM     31  C   UNL     1       1.611  -4.763  28.449  0.00  0.00    +0.159 C 
ATOM     32  C   UNL     1       2.078  -5.588  27.318  0.00  0.00    +0.105 C 
ATOM     33  N   UNL     1       3.164  -5.029  26.517  0.00  0.00    -0.271 NA
BRANCH  27  35
ATOM     34  C   UNL     1       3.958  -2.153  26.121  0.00  0.00    +0.001 C 
ATOM     35  C   UNL     1       3.912  -2.855  27.425  0.00  0.00    +0.017 C 
ENDBRANCH  27  35
ENDBRANCH  26  33
ENDBRANCH   1  26
BRANCH   1  36
ATOM     36  C   UNL     1       3.016  -5.466  23.671  0.00  0.00    +0.052 C 
BRANCH  36  37
ATOM     37  C   UNL     1       3.329  -4.221  23.013  0.00  0.00    +0.102 C 
ATOM     38  C   UNL     1       2.318  -3.384  22.510  0.00  0.00    +0.074 C 
ATOM     39  C   UNL     1       2.919  -2.285  21.975  0.00  0.00    +0.227 C 
ATOM     40  O   UNL     1       4.219  -2.452  22.147  0.00  0.00    -0.339 OA
ATOM     41  N   UNL     1       4.449  -3.574  22.748  0.00  0.00    -0.080 NA
BRANCH  39  42
ATOM     42  N   UNL     1       2.261  -1.187  21.358  0.00  0.00    -0.299 N 
ATOM     43  H   UNL     1       1.916  -1.296  20.442  0.00  0.00    +0.150 HD
BRANCH  42  44
ATOM     44  C   UNL     1       2.078   0.083  22.022  0.00  0.00    +0.131 C 
BRANCH  44  45
ATOM     45  C   UNL     1       0.734   0.648  21.616  0.00  0.00    +0.229 C 
BRANCH  45  46
ATOM     46  O   UNL     1       0.729   2.040  21.721  0.00  0.00    -0.373 OA
ATOM     47  H   UNL     1       1.477   2.405  21.222  0.00  0.00    +0.211 HD
ENDBRANCH  45  46
BRANCH  45  48
ATOM     48  C   UNL     1      -0.390   0.082  22.364  0.00  0.00    +0.343 C 
ATOM     49  O   UNL     1      -1.531   0.590  22.249  0.00  0.00    -0.248 OA
BRANCH  48  50
ATOM     50  O   UNL     1      -0.226  -1.021  23.208  0.00  0.00    -0.478 OA
ATOM     51  H   UNL     1       0.619  -1.414  23.307  0.00  0.00    +0.295 HD
ENDBRANCH  48  50
ENDBRANCH  45  48
ENDBRANCH  44  45
ENDBRANCH  42  44
ENDBRANCH  39  42
ENDBRANCH  36  37
ENDBRANCH   1  36
TORSDOF 20
