MODEL 1
REMARK VINA RESULT:   -10.643      0.000      0.000
REMARK INTER + INTRA:         -16.171
REMARK INTER:                 -14.376
REMARK INTRA:                  -1.795
REMARK UNBOUND:                -1.795
REMARK  Name = =
REMARK  6 active torsions:
REMARK  status: ('A' for Active; 'I' for Inactive)
REMARK    1  A    between atoms: C_1  and  S_35
REMARK    2  A    between atoms: C_2  and  C_11
REMARK    3  A    between atoms: C_10  and  C_21
REMARK    4  A    between atoms: C_25  and  N_27
REMARK    5  A    between atoms: S_35  and  N_38
REMARK    6  A    between atoms: N_38  and  C_39
REMARK                            x       y       z     vdW  Elec       q    Type
REMARK                         _______ _______ _______ _____ _____    ______ ____
ROOT
ATOM      1  C   UNL     1      -1.191  -6.491  29.218  0.00  0.00    +0.174 C 
ATOM      2  C   UNL     1      -1.464  -6.642  30.672  0.00  0.00    +0.086 C 
ATOM      3  C   UNL     1      -0.287  -6.403  31.497  0.00  0.00    +0.013 C 
ATOM      4  C   UNL     1       1.043  -6.479  30.864  0.00  0.00    +0.022 C 
ATOM      5  C   UNL     1       2.085  -6.056  31.887  0.00  0.00    +0.004 C 
ATOM      6  C   UNL     1       2.129  -7.124  32.942  0.00  0.00    +0.000 C 
ATOM      7  C   UNL     1       0.792  -7.546  33.447  0.00  0.00    +0.000 C 
ATOM      8  C   UNL     1      -0.362  -6.750  32.933  0.00  0.00    +0.001 C 
ATOM      9  C   UNL     1       1.077  -5.668  29.642  0.00  0.00    -0.033 C 
ATOM     10  C   UNL     1      -0.009  -5.682  28.854  0.00  0.00    -0.021 C 
ENDROOT
BRANCH   2  11
ATOM     11  C   UNL     1      -2.573  -5.749  31.161  0.00  0.00    +0.141 C 
ATOM     12  N   UNL     1      -2.762  -4.498  30.687  0.00  0.00    -0.228 NA
ATOM     13  C   UNL     1      -3.768  -3.728  31.144  0.00  0.00    +0.121 C 
ATOM     14  C   UNL     1      -4.648  -4.180  32.115  0.00  0.00    +0.121 C 
ATOM     15  N   UNL     1      -5.663  -3.433  32.592  0.00  0.00    -0.221 NA
ATOM     16  C   UNL     1      -5.843  -2.200  32.120  0.00  0.00    +0.199 C 
ATOM     17  N   UNL     1      -5.007  -1.731  31.178  0.00  0.00    -0.221 NA
ATOM     18  C   UNL     1      -3.980  -2.444  30.674  0.00  0.00    +0.121 C 
ATOM     19  C   UNL     1      -4.451  -5.461  32.598  0.00  0.00    +0.121 C 
ATOM     20  N   UNL     1      -3.439  -6.166  32.101  0.00  0.00    -0.228 NA
ENDBRANCH   2  11
BRANCH  10  21
ATOM     21  C   UNL     1       0.036  -4.869  27.595  0.00  0.00    +0.043 C 
ATOM     22  C   UNL     1      -0.717  -3.569  27.809  0.00  0.00    +0.009 C 
ATOM     23  C   UNL     1       0.149  -2.753  28.748  0.00  0.00    +0.007 C 
ATOM     24  C   UNL     1       1.373  -2.321  28.012  0.00  0.00    +0.042 C 
ATOM     25  C   UNL     1       2.087  -3.474  27.346  0.00  0.00    +0.034 C 
ATOM     26  C   UNL     1       1.433  -4.603  27.183  0.00  0.00    -0.011 C 
BRANCH  25  27
ATOM     27  N   UNL     1       3.423  -3.270  26.960  0.00  0.00    -0.210 N 
ATOM     28  C   UNL     1       4.516  -3.919  27.639  0.00  0.00    +0.251 C 
ATOM     29  O   UNL     1       4.403  -4.323  28.797  0.00  0.00    -0.273 OA
ATOM     30  C   UNL     1       5.753  -4.030  26.798  0.00  0.00    +0.156 C 
ATOM     31  N   UNL     1       6.224  -2.733  26.387  0.00  0.00    -0.282 NA
ATOM     32  C   UNL     1       5.204  -1.837  25.909  0.00  0.00    +0.156 C 
ATOM     33  C   UNL     1       3.854  -2.452  25.867  0.00  0.00    +0.251 C 
ATOM     34  O   UNL     1       3.110  -2.258  24.898  0.00  0.00    -0.273 OA
ATOM     35  H   UNL     1       6.903  -2.867  25.638  0.00  0.00    +0.124 HD
ENDBRANCH  25  27
ENDBRANCH  10  21
BRANCH   1  36
ATOM     36  S   UNL     1      -0.949  -8.084  28.417  0.00  0.00    +0.056 S 
ATOM     37  O   UNL     1      -1.765  -8.159  27.159  0.00  0.00    -0.154 OA
ATOM     38  O   UNL     1      -1.541  -9.100  29.355  0.00  0.00    -0.154 OA
BRANCH  36  39
ATOM     39  N   UNL     1       0.675  -8.361  28.043  0.00  0.00    -0.219 N 
ATOM     40  H   UNL     1       1.294  -7.611  28.199  0.00  0.00    +0.173 HD
BRANCH  39  41
ATOM     41  C   UNL     1       1.240  -9.539  27.535  0.00  0.00    +0.064 C 
ATOM     42  C   UNL     1       2.592  -9.641  27.306  0.00  0.00    +0.016 C 
ATOM     43  C   UNL     1       3.177 -10.786  26.807  0.00  0.00    +0.001 C 
ATOM     44  C   UNL     1       2.416 -11.895  26.512  0.00  0.00    +0.000 C 
ATOM     45  C   UNL     1       1.053 -11.813  26.735  0.00  0.00    +0.001 C 
ATOM     46  C   UNL     1       0.482 -10.650  27.238  0.00  0.00    +0.016 C 
ENDBRANCH  39  41
ENDBRANCH  36  39
ENDBRANCH   1  36
TORSDOF 6
ENDMDL
