REMARK  Name = =
REMARK  6 active torsions:
REMARK  status: ('A' for Active; 'I' for Inactive)
REMARK    1  A    between atoms: C_1  and  S_35
REMARK    2  A    between atoms: C_2  and  C_11
REMARK    3  A    between atoms: C_10  and  C_21
REMARK    4  A    between atoms: C_25  and  N_27
REMARK    5  A    between atoms: S_35  and  N_38
REMARK    6  A    between atoms: N_38  and  C_39
REMARK                            x       y       z     vdW  Elec       q    Type
REMARK                         _______ _______ _______ _____ _____    ______ ____
ROOT
ATOM      1  C   UNL     1     -12.392  -0.489  29.145  0.00  0.00    +0.174 C 
ATOM      2  C   UNL     1     -11.039  -0.765  28.595  0.00  0.00    +0.086 C 
ATOM      3  C   UNL     1     -10.898  -0.357  27.203  0.00  0.00    +0.013 C 
ATOM      4  C   UNL     1     -12.121  -0.150  26.404  0.00  0.00    +0.022 C 
ATOM      5  C   UNL     1     -11.717   0.403  25.047  0.00  0.00    +0.004 C 
ATOM      6  C   UNL     1     -10.994  -0.693  24.319  0.00  0.00    +0.000 C 
ATOM      7  C   UNL     1      -9.948  -1.383  25.125  0.00  0.00    +0.000 C 
ATOM      8  C   UNL     1      -9.688  -0.788  26.470  0.00  0.00    +0.001 C 
ATOM      9  C   UNL     1     -13.062   0.717  27.120  0.00  0.00    -0.033 C 
ATOM     10  C   UNL     1     -13.185   0.544  28.445  0.00  0.00    -0.021 C 
ENDROOT
BRANCH   2  11
ATOM     11  C   UNL     1      -9.934  -0.121  29.390  0.00  0.00    +0.141 C 
ATOM     12  N   UNL     1      -9.153  -0.817  30.245  0.00  0.00    -0.228 NA
ATOM     13  C   UNL     1      -8.170  -0.210  30.937  0.00  0.00    +0.121 C 
ATOM     14  C   UNL     1      -7.917   1.147  30.804  0.00  0.00    +0.121 C 
ATOM     15  N   UNL     1      -6.941   1.781  31.483  0.00  0.00    -0.221 NA
ATOM     16  C   UNL     1      -6.175   1.089  32.325  0.00  0.00    +0.199 C 
ATOM     17  N   UNL     1      -6.395  -0.229  32.477  0.00  0.00    -0.221 NA
ATOM     18  C   UNL     1      -7.359  -0.902  31.818  0.00  0.00    +0.121 C 
ATOM     19  C   UNL     1      -8.718   1.855  29.928  0.00  0.00    +0.121 C 
ATOM     20  N   UNL     1      -9.670   1.192  29.277  0.00  0.00    -0.228 NA
ENDBRANCH   2  11
BRANCH  10  21
ATOM     21  C   UNL     1     -14.163   1.418  29.172  0.00  0.00    +0.043 C 
ATOM     22  C   UNL     1     -13.422   2.258  30.196  0.00  0.00    +0.009 C 
ATOM     23  C   UNL     1     -12.629   3.267  29.390  0.00  0.00    +0.007 C 
ATOM     24  C   UNL     1     -13.580   4.239  28.775  0.00  0.00    +0.042 C 
ATOM     25  C   UNL     1     -14.690   3.558  28.008  0.00  0.00    +0.034 C 
ATOM     26  C   UNL     1     -14.909   2.281  28.228  0.00  0.00    -0.011 C 
BRANCH  25  27
ATOM     27  N   UNL     1     -15.408   4.337  27.084  0.00  0.00    -0.210 N 
ATOM     28  C   UNL     1     -15.678   5.733  27.317  0.00  0.00    +0.251 C 
ATOM     29  O   UNL     1     -15.682   6.205  28.454  0.00  0.00    -0.273 OA
ATOM     30  C   UNL     1     -15.945   6.503  26.057  0.00  0.00    +0.156 C 
ATOM     31  N   UNL     1     -17.078   5.968  25.348  0.00  0.00    -0.282 NA
ATOM     32  C   UNL     1     -17.109   4.533  25.240  0.00  0.00    +0.156 C 
ATOM     33  C   UNL     1     -15.916   3.874  25.828  0.00  0.00    +0.251 C 
ATOM     34  O   UNL     1     -15.369   2.934  25.239  0.00  0.00    -0.273 OA
ATOM     35  H   UNL     1     -17.072   6.356  24.405  0.00  0.00    +0.124 HD
ENDBRANCH  25  27
ENDBRANCH  10  21
BRANCH   1  36
ATOM     36  S   UNL     1     -13.423  -1.964  29.152  0.00  0.00    +0.056 S 
ATOM     37  O   UNL     1     -13.241  -2.727  27.873  0.00  0.00    -0.154 OA
ATOM     38  O   UNL     1     -14.841  -1.463  29.137  0.00  0.00    -0.154 OA
BRANCH  36  39
ATOM     39  N   UNL     1     -13.067  -2.975  30.458  0.00  0.00    -0.219 N 
ATOM     40  H   UNL     1     -13.061  -3.942  30.274  0.00  0.00    +0.173 HD
BRANCH  39  41
ATOM     41  C   UNL     1     -12.779  -2.590  31.775  0.00  0.00    +0.064 C 
ATOM     42  C   UNL     1     -13.646  -1.800  32.493  0.00  0.00    +0.016 C 
ATOM     43  C   UNL     1     -13.391  -1.404  33.789  0.00  0.00    +0.001 C 
ATOM     44  C   UNL     1     -12.235  -1.792  34.429  0.00  0.00    +0.000 C 
ATOM     45  C   UNL     1     -11.349  -2.587  33.724  0.00  0.00    +0.001 C 
ATOM     46  C   UNL     1     -11.624  -2.975  32.418  0.00  0.00    +0.016 C 
ENDBRANCH  39  41
ENDBRANCH  36  39
ENDBRANCH   1  36
TORSDOF 6
