REMARK  Name = =
REMARK  1 active torsions:
REMARK  status: ('A' for Active; 'I' for Inactive)
REMARK    1  A    between atoms: C_11  and  C_18
REMARK                            x       y       z     vdW  Elec       q    Type
REMARK                         _______ _______ _______ _____ _____    ______ ____
ROOT
ATOM      1  N   UNL     1      50.635 159.878  29.698  0.00  0.00    -0.210 NA
ATOM      2  C   UNL     1      49.486 159.511  30.284  0.00  0.00    +0.232 C 
ATOM      3  N   UNL     1      48.340 159.905  29.739  0.00  0.00    -0.193 NA
ATOM      4  C   UNL     1      48.299 160.663  28.615  0.00  0.00    +0.182 C 
ATOM      5  C   UNL     1      49.464 161.051  27.998  0.00  0.00    +0.105 C 
ATOM      6  C   UNL     1      50.654 160.628  28.584  0.00  0.00    +0.120 C 
ATOM      7  N   UNL     1      49.133 161.775  26.937  0.00  0.00    -0.292 N 
ATOM      8  C   UNL     1      47.796 161.867  26.847  0.00  0.00    +0.166 C 
ATOM      9  N   UNL     1      47.297 161.179  27.884  0.00  0.00    -0.208 NA
ATOM     10  N   UNL     1      49.427 158.717  31.464  0.00  0.00    -0.192 N 
ATOM     11  C   UNL     1      49.299 159.318  32.661  0.00  0.00    +0.057 C 
ATOM     12  C   UNL     1      49.249 158.489  33.765  0.00  0.00    +0.044 C 
ATOM     13  C   UNL     1      49.326 157.110  33.644  0.00  0.00    +0.120 C 
ATOM     14  N   UNL     1      49.454 156.572  32.419  0.00  0.00    -0.147 NA
ATOM     15  C   UNL     1      49.505 157.377  31.333  0.00  0.00    +0.338 C 
ATOM     16  O   UNL     1      49.625 156.808  30.217  0.00  0.00    -0.250 OA
ATOM     17  N   UNL     1      49.275 156.266  34.772  0.00  0.00    -0.344 N 
ATOM     18  H   UNL     1      49.772 162.184  26.309  0.00  0.00    +0.154 HD
ATOM     19  H   UNL     1      49.181 156.653  35.672  0.00  0.00    +0.144 HD
ATOM     20  H   UNL     1      49.333 155.290  34.659  0.00  0.00    +0.144 HD
ENDROOT
BRANCH  11  21
ATOM     21  C   UNL     1      49.216 160.792  32.793  0.00  0.00    +0.094 C 
ATOM     22  N   UNL     1      48.640 161.181  34.029  0.00  0.00    -0.280 NA
ATOM     23  C   UNL     1      48.796 162.531  34.418  0.00  0.00    +0.142 C 
ATOM     24  N   UNL     1      49.918 163.228  33.926  0.00  0.00    -0.284 NA
ATOM     25  C   UNL     1      50.330 162.922  32.597  0.00  0.00    +0.071 C 
ATOM     26  C   UNL     1      50.579 161.407  32.556  0.00  0.00    +0.039 C 
ATOM     27  H   UNL     1      49.057 160.602  34.758  0.00  0.00    +0.125 HD
ATOM     28  H   UNL     1      50.702 163.028  34.546  0.00  0.00    +0.125 HD
ENDBRANCH  11  21
TORSDOF 1
