MODEL 1
REMARK VINA RESULT:    -7.731      0.000      0.000
REMARK INTER + INTRA:         -11.654
REMARK INTER:                 -11.120
REMARK INTRA:                  -0.534
REMARK UNBOUND:                -0.534
REMARK  Name = =
REMARK  9 active torsions:
REMARK  status: ('A' for Active; 'I' for Inactive)
REMARK    1  A    between atoms: C_1  and  C_18
REMARK    2  A    between atoms: C_2  and  O_29
REMARK    3  A    between atoms: C_7  and  O_30
REMARK    4  A    between atoms: C_9  and  N_28
REMARK    5  A    between atoms: C_17  and  N_20
REMARK    6  A    between atoms: O_30  and  P_31
REMARK    7  A    between atoms: P_31  and  S_33
REMARK    8  A    between atoms: P_31  and  N_34
REMARK    9  A    between atoms: N_34  and  N_35
REMARK                            x       y       z     vdW  Elec       q    Type
REMARK                         _______ _______ _______ _____ _____    ______ ____
ROOT
ATOM      1  C   UNL     1      55.152 161.848  42.133  0.00  0.00    +0.129 C 
ATOM      2  C   UNL     1      54.967 160.590  42.492  0.00  0.00    +0.180 C 
ATOM      3  C   UNL     1      53.658 159.938  42.577  0.00  0.00    +0.229 C 
ATOM      4  O   UNL     1      53.526 158.740  42.924  0.00  0.00    -0.283 OA
ATOM      5  C   UNL     1      52.479 160.712  42.248  0.00  0.00    +0.049 C 
ATOM      6  C   UNL     1      52.585 162.024  41.865  0.00  0.00    +0.077 C 
ATOM      7  C   UNL     1      51.471 162.793  41.543  0.00  0.00    +0.151 C 
ATOM      8  C   UNL     1      50.235 162.218  41.611  0.00  0.00    +0.052 C 
ATOM      9  C   UNL     1      50.091 160.905  41.989  0.00  0.00    +0.045 C 
ATOM     10  C   UNL     1      51.204 160.161  42.306  0.00  0.00    +0.018 C 
ATOM     11  C   UNL     1      53.897 162.599  41.803  0.00  0.00    +0.206 C 
ATOM     12  O   UNL     1      53.956 163.814  41.447  0.00  0.00    -0.286 OA
ENDROOT
BRANCH   1  18
ATOM     13  N   UNL     1      57.566 162.538  41.290  0.00  0.00    -0.261 N 
ATOM     14  C   UNL     1      58.607 163.605  41.598  0.00  0.00    +0.095 C 
ATOM     15  C   UNL     1      59.434 163.693  40.392  0.00  0.00    +0.025 C 
ATOM     16  C   UNL     1      58.951 162.689  39.430  0.00  0.00    +0.043 C 
ATOM     17  C   UNL     1      58.114 161.745  40.276  0.00  0.00    +0.161 C 
ATOM     18  C   UNL     1      56.355 162.571  42.017  0.00  0.00    +0.256 C 
ATOM     19  O   UNL     1      56.404 163.629  42.840  0.00  0.00    -0.270 OA
BRANCH  17  20
ATOM     20  N   UNL     1      58.785 160.602  40.718  0.00  0.00    -0.212 N 
ATOM     21  C   UNL     1      59.592 160.417  41.877  0.00  0.00    +0.250 C 
ATOM     22  O   UNL     1      60.379 161.296  42.200  0.00  0.00    -0.273 OA
ATOM     23  C   UNL     1      59.449 159.152  42.661  0.00  0.00    +0.175 C 
ATOM     24  N   UNL     1      58.697 158.147  41.934  0.00  0.00    -0.199 NA
ATOM     25  C   UNL     1      59.147 158.118  40.572  0.00  0.00    +0.175 C 
ATOM     26  C   UNL     1      58.743 159.400  39.904  0.00  0.00    +0.250 C 
ATOM     27  O   UNL     1      58.392 159.392  38.702  0.00  0.00    -0.273 OA
ENDBRANCH  17  20
ENDBRANCH   1  18
BRANCH   9  28
ATOM     28  N   UNL     1      48.809 160.335  42.052  0.00  0.00    -0.357 N 
ATOM     29  H   UNL     1      48.086 160.686  41.483  0.00  0.00    +0.142 HD
ATOM     30  H   UNL     1      48.633 159.585  42.665  0.00  0.00    +0.142 HD
ENDBRANCH   9  28
BRANCH   2  31
ATOM     31  O   UNL     1      56.078 159.837  42.811  0.00  0.00    -0.503 OA
ATOM     32  H   UNL     1      56.708 159.628  42.150  0.00  0.00    +0.292 HD
ENDBRANCH   2  31
BRANCH   7  33
ATOM     33  O   UNL     1      51.629 164.129  41.157  0.00  0.00    -0.423 OA
BRANCH  33  34
ATOM     34  P   UNL     1      50.431 165.281  41.541  0.00  0.00    +0.387 P 
ATOM     35  O   UNL     1      50.168 165.223  43.034  0.00  0.00    -0.245 OA
BRANCH  34  36
ATOM     36  S   UNL     1      48.690 164.798  40.450  0.00  0.00    -0.058 S 
ATOM     37  H   UNL     1      48.880 163.626  39.787  0.00  0.00    +0.114 HD
ENDBRANCH  34  36
BRANCH  34  38
ATOM     38  N   UNL     1      51.033 166.860  41.160  0.00  0.00    -0.160 NA
ATOM     39  H   UNL     1      50.587 167.538  41.779  0.00  0.00    +0.153 HD
BRANCH  38  40
ATOM     40  N   UNL     1      52.422 166.956  41.316  0.00  0.00    -0.213 NA
ATOM     41  C   UNL     1      52.693 167.952  42.325  0.00  0.00    +0.089 C 
ATOM     42  C   UNL     1      52.754 169.286  41.613  0.00  0.00    +0.020 C 
ATOM     43  C   UNL     1      52.509 168.950  40.148  0.00  0.00    +0.020 C 
ATOM     44  C   UNL     1      52.927 167.516  40.053  0.00  0.00    +0.089 C 
ENDBRANCH  38  40
ENDBRANCH  34  38
ENDBRANCH  33  34
ENDBRANCH   7  33
TORSDOF 9
ENDMDL
