REMARK  Name = =
REMARK  9 active torsions:
REMARK  status: ('A' for Active; 'I' for Inactive)
REMARK    1  A    between atoms: C_1  and  C_18
REMARK    2  A    between atoms: C_2  and  O_29
REMARK    3  A    between atoms: C_7  and  O_30
REMARK    4  A    between atoms: C_9  and  N_28
REMARK    5  A    between atoms: C_17  and  N_20
REMARK    6  A    between atoms: O_30  and  P_31
REMARK    7  A    between atoms: P_31  and  S_33
REMARK    8  A    between atoms: P_31  and  N_34
REMARK    9  A    between atoms: N_34  and  N_35
REMARK                            x       y       z     vdW  Elec       q    Type
REMARK                         _______ _______ _______ _____ _____    ______ ____
ROOT
ATOM      1  C   UNL     1      52.523 156.474  27.652  0.00  0.00    +0.129 C 
ATOM      2  C   UNL     1      51.650 155.505  27.862  0.00  0.00    +0.180 C 
ATOM      3  C   UNL     1      50.539 155.585  28.813  0.00  0.00    +0.229 C 
ATOM      4  O   UNL     1      49.731 154.640  28.983  0.00  0.00    -0.283 OA
ATOM      5  C   UNL     1      50.373 156.802  29.581  0.00  0.00    +0.049 C 
ATOM      6  C   UNL     1      51.237 157.855  29.421  0.00  0.00    +0.077 C 
ATOM      7  C   UNL     1      51.104 159.037  30.144  0.00  0.00    +0.151 C 
ATOM      8  C   UNL     1      50.079 159.147  31.039  0.00  0.00    +0.052 C 
ATOM      9  C   UNL     1      49.194 158.112  31.224  0.00  0.00    +0.045 C 
ATOM     10  C   UNL     1      49.343 156.951  30.501  0.00  0.00    +0.018 C 
ATOM     11  C   UNL     1      52.302 157.709  28.473  0.00  0.00    +0.206 C 
ATOM     12  O   UNL     1      53.081 158.702  28.353  0.00  0.00    -0.286 OA
ENDROOT
BRANCH   1  18
ATOM     13  N   UNL     1      54.020 155.961  25.528  0.00  0.00    -0.261 N 
ATOM     14  C   UNL     1      55.408 156.315  25.013  0.00  0.00    +0.095 C 
ATOM     15  C   UNL     1      55.338 156.126  23.562  0.00  0.00    +0.025 C 
ATOM     16  C   UNL     1      53.994 155.628  23.229  0.00  0.00    +0.043 C 
ATOM     17  C   UNL     1      53.447 155.133  24.557  0.00  0.00    +0.161 C 
ATOM     18  C   UNL     1      53.620 156.505  26.769  0.00  0.00    +0.256 C 
ATOM     19  O   UNL     1      54.618 157.284  27.212  0.00  0.00    -0.270 OA
BRANCH  17  20
ATOM     20  N   UNL     1      53.603 153.763  24.782  0.00  0.00    -0.212 N 
ATOM     21  C   UNL     1      54.701 152.913  24.468  0.00  0.00    +0.250 C 
ATOM     22  O   UNL     1      55.265 153.044  23.390  0.00  0.00    -0.273 OA
ATOM     23  C   UNL     1      55.129 151.888  25.468  0.00  0.00    +0.175 C 
ATOM     24  N   UNL     1      54.144 151.713  26.518  0.00  0.00    -0.199 NA
ATOM     25  C   UNL     1      52.836 151.662  25.931  0.00  0.00    +0.175 C 
ATOM     26  C   UNL     1      52.506 153.016  25.373  0.00  0.00    +0.250 C 
ATOM     27  O   UNL     1      51.332 153.445  25.433  0.00  0.00    -0.273 OA
ENDBRANCH  17  20
ENDBRANCH   1  18
BRANCH   9  28
ATOM     28  N   UNL     1      48.148 158.248  32.151  0.00  0.00    -0.357 N 
ATOM     29  H   UNL     1      48.050 159.083  32.663  0.00  0.00    +0.142 HD
ATOM     30  H   UNL     1      47.513 157.509  32.288  0.00  0.00    +0.142 HD
ENDBRANCH   9  28
BRANCH   2  31
ATOM     31  O   UNL     1      51.791 154.337  27.142  0.00  0.00    -0.503 OA
ATOM     32  H   UNL     1      52.490 154.249  26.524  0.00  0.00    +0.292 HD
ENDBRANCH   2  31
BRANCH   7  33
ATOM     33  O   UNL     1      52.010 160.085  29.946  0.00  0.00    -0.423 OA
BRANCH  33  34
ATOM     34  P   UNL     1      51.907 161.499  30.895  0.00  0.00    +0.387 P 
ATOM     35  O   UNL     1      52.132 162.700  29.995  0.00  0.00    -0.245 OA
BRANCH  34  36
ATOM     36  S   UNL     1      53.392 161.389  32.391  0.00  0.00    -0.058 S 
ATOM     37  H   UNL     1      54.618 161.302  31.808  0.00  0.00    +0.114 HD
ENDBRANCH  34  36
BRANCH  34  38
ATOM     38  N   UNL     1      50.310 161.612  31.556  0.00  0.00    -0.160 NA
ATOM     39  H   UNL     1      50.001 160.678  31.826  0.00  0.00    +0.153 HD
BRANCH  38  40
ATOM     40  N   UNL     1      50.253 162.447  32.680  0.00  0.00    -0.213 NA
ATOM     41  C   UNL     1      50.108 161.614  33.850  0.00  0.00    +0.089 C 
ATOM     42  C   UNL     1      48.624 161.383  34.037  0.00  0.00    +0.020 C 
ATOM     43  C   UNL     1      47.970 162.153  32.898  0.00  0.00    +0.020 C 
ATOM     44  C   UNL     1      48.992 163.193  32.559  0.00  0.00    +0.089 C 
ENDBRANCH  38  40
ENDBRANCH  34  38
ENDBRANCH  33  34
ENDBRANCH   7  33
TORSDOF 9
