MODEL 1
REMARK VINA RESULT:   -11.546      0.000      0.000
REMARK INTER + INTRA:         -16.038
REMARK INTER:                 -14.921
REMARK INTRA:                  -1.117
REMARK UNBOUND:                -1.117
REMARK  Name = =
REMARK  6 active torsions:
REMARK  status: ('A' for Active; 'I' for Inactive)
REMARK    1  A    between atoms: N_1  and  C_32
REMARK    2  A    between atoms: C_3  and  C_6
REMARK    3  A    between atoms: C_12  and  O_27
REMARK    4  A    between atoms: C_15  and  O_26
REMARK    5  A    between atoms: C_29  and  N_38
REMARK    6  A    between atoms: C_48  and  S_49
REMARK                            x       y       z     vdW  Elec       q    Type
REMARK                         _______ _______ _______ _____ _____    ______ ____
ROOT
ATOM      1  N   UNL     1      -0.043  -6.532  28.931  0.00  0.00    -0.280 N 
ATOM      2  C   UNL     1       1.326  -6.078  29.170  0.00  0.00    +0.123 C 
ATOM      3  C   UNL     1       1.667  -5.684  27.717  0.00  0.00    +0.141 C 
ATOM      4  O   UNL     1       1.221  -6.834  27.069  0.00  0.00    -0.335 OA
ATOM      5  C   UNL     1       0.029  -7.228  27.677  0.00  0.00    +0.240 C 
ENDROOT
BRANCH   3   6
ATOM      6  C   UNL     1       3.104  -5.402  27.616  0.00  0.00    +0.054 C 
ATOM      7  C   UNL     1       4.010  -6.557  27.335  0.00  0.00    +0.007 C 
ATOM      8  C   UNL     1       5.455  -6.171  27.571  0.00  0.00    +0.005 C 
ATOM      9  C   UNL     1       5.678  -4.687  27.680  0.00  0.00    +0.029 C 
ATOM     10  C   UNL     1       4.801  -3.916  26.728  0.00  0.00    +0.011 A 
ATOM     11  C   UNL     1       3.481  -4.311  26.711  0.00  0.00    +0.013 A 
ATOM     12  C   UNL     1       2.600  -3.653  25.855  0.00  0.00    +0.133 A 
ATOM     13  C   UNL     1       3.065  -2.623  25.044  0.00  0.00    +0.078 A 
ATOM     14  C   UNL     1       4.397  -2.239  25.077  0.00  0.00    +0.078 A 
ATOM     15  C   UNL     1       5.264  -2.906  25.937  0.00  0.00    +0.133 A 
ATOM     16  C   UNL     1       4.896  -1.150  24.226  0.00  0.00    +0.199 C 
ATOM     17  O   UNL     1       6.107  -0.826  24.279  0.00  0.00    -0.286 OA
ATOM     18  C   UNL     1       4.022  -0.434  23.324  0.00  0.00    +0.042 C 
ATOM     19  C   UNL     1       2.714  -0.787  23.270  0.00  0.00    +0.042 C 
ATOM     20  C   UNL     1       1.859  -0.128  22.424  0.00  0.00    +0.003 C 
ATOM     21  C   UNL     1       2.349   0.899  21.628  0.00  0.00    +0.000 C 
ATOM     22  C   UNL     1       3.674   1.279  21.662  0.00  0.00    +0.000 C 
ATOM     23  C   UNL     1       4.523   0.592  22.531  0.00  0.00    +0.003 C 
ATOM     24  C   UNL     1       2.206  -1.883  24.124  0.00  0.00    +0.199 C 
ATOM     25  O   UNL     1       0.981  -2.166  24.029  0.00  0.00    -0.286 OA
BRANCH  15  26
ATOM     26  O   UNL     1       6.572  -2.482  25.926  0.00  0.00    -0.506 OA
ATOM     27  H   UNL     1       7.268  -3.109  25.935  0.00  0.00    +0.292 HD
ENDBRANCH  15  26
BRANCH  12  28
ATOM     28  O   UNL     1       1.295  -4.016  25.811  0.00  0.00    -0.506 OA
ATOM     29  H   UNL     1       0.640  -3.458  26.183  0.00  0.00    +0.292 HD
ENDBRANCH  12  28
ENDBRANCH   3   6
BRANCH   1  34
ATOM     30  N   UNL     1      -2.647  -2.609  30.749  0.00  0.00    -0.215 NA
ATOM     31  C   UNL     1      -3.240  -3.659  31.173  0.00  0.00    +0.144 C 
ATOM     32  C   UNL     1      -2.762  -4.985  30.832  0.00  0.00    +0.034 C 
ATOM     33  C   UNL     1      -1.657  -5.090  30.040  0.00  0.00    +0.019 C 
ATOM     34  C   UNL     1      -1.166  -6.326  29.725  0.00  0.00    +0.050 C 
ATOM     35  C   UNL     1      -1.804  -7.454  30.217  0.00  0.00    +0.015 C 
ATOM     36  C   UNL     1      -2.923  -7.401  31.018  0.00  0.00    +0.001 C 
ATOM     37  C   UNL     1      -3.386  -6.135  31.314  0.00  0.00    +0.003 C 
ATOM     38  C   UNL     1      -0.990  -3.907  29.488  0.00  0.00    +0.036 C 
ATOM     39  C   UNL     1      -1.494  -2.577  29.930  0.00  0.00    +0.134 C 
ATOM     40  N   UNL     1      -1.598  -1.726  28.763  0.00  0.00    -0.285 N 
ATOM     41  C   UNL     1      -2.548  -2.432  27.874  0.00  0.00    +0.093 C 
ATOM     42  C   UNL     1      -1.663  -3.615  27.545  0.00  0.00    +0.024 C 
ATOM     43  C   UNL     1      -0.393  -3.214  27.557  0.00  0.00    +0.033 C 
ATOM     44  C   UNL     1      -0.463  -1.766  27.896  0.00  0.00    +0.128 C 
BRANCH  31  45
ATOM     45  N   UNL     1      -4.380  -3.518  31.986  0.00  0.00    -0.204 N 
ATOM     46  C   UNL     1      -5.537  -2.978  31.514  0.00  0.00    +0.091 C 
ATOM     47  C   UNL     1      -6.453  -2.971  32.518  0.00  0.00    +0.082 C 
ATOM     48  N   UNL     1      -5.832  -3.509  33.586  0.00  0.00    -0.265 N 
ATOM     49  C   UNL     1      -4.569  -3.847  33.276  0.00  0.00    +0.316 C 
ATOM     50  O   UNL     1      -3.689  -4.371  34.003  0.00  0.00    -0.252 OA
ATOM     51  H   UNL     1      -6.246  -3.637  34.470  0.00  0.00    +0.157 HD
ENDBRANCH  31  45
BRANCH  44  52
ATOM     52  S   UNL     1       0.996  -1.047  28.440  0.00  0.00    -0.076 S 
ATOM     53  O   UNL     1       2.031  -2.013  28.957  0.00  0.00    -0.173 OA
ATOM     54  C   UNL     1       1.828  -0.276  27.321  0.00  0.00    +0.078 C 
ATOM     55  H   UNL     1       0.488  -0.229  29.400  0.00  0.00    +0.115 HD
ENDBRANCH  44  52
ENDBRANCH   1  34
TORSDOF 6
ENDMDL
