REMARK  Name = =
REMARK  0 active torsions:
REMARK  status: ('A' for Active; 'I' for Inactive)
REMARK                            x       y       z     vdW  Elec       q    Type
REMARK                         _______ _______ _______ _____ _____    ______ ____
ROOT
ATOM      1  C   UNL     1      47.171 160.051  30.922  0.00  0.00    +0.019 C 
ATOM      2  C   UNL     1      48.019 160.988  31.713  0.00  0.00    +0.089 C 
ATOM      3  N   UNL     1      49.025 160.333  32.522  0.00  0.00    -0.219 NA
ATOM      4  C   UNL     1      49.858 159.443  31.742  0.00  0.00    +0.081 C 
ATOM      5  C   UNL     1      49.032 158.454  30.951  0.00  0.00    +0.035 C 
ATOM      6  C   UNL     1      48.029 159.142  30.086  0.00  0.00    +0.007 C 
ATOM      7  C   UNL     1      49.936 157.552  30.230  0.00  0.00    -0.038 C 
ATOM      8  C   UNL     1      49.526 156.255  29.928  0.00  0.00    +0.048 C 
ATOM      9  C   UNL     1      50.433 155.464  29.252  0.00  0.00    -0.020 C 
ATOM     10  C   UNL     1      51.683 155.923  28.887  0.00  0.00    +0.015 C 
ATOM     11  C   UNL     1      52.101 157.226  29.188  0.00  0.00    +0.080 C 
ATOM     12  N   UNL     1      53.150 157.907  28.990  0.00  0.00    -0.244 NA
ATOM     13  C   UNL     1      53.021 159.240  29.535  0.00  0.00    +0.095 C 
ATOM     14  C   UNL     1      51.643 159.208  30.108  0.00  0.00    -0.001 C 
ATOM     15  C   UNL     1      51.185 157.998  29.862  0.00  0.00    +0.008 C 
ATOM     16  C   UNL     1      50.779 160.169  30.819  0.00  0.00    +0.046 C 
ENDROOT
TORSDOF 0
