REMARK  Name = =
REMARK  2 active torsions:
REMARK  status: ('A' for Active; 'I' for Inactive)
REMARK    1  A    between atoms: C_1  and  N_17
REMARK    2  A    between atoms: N_20  and  N_21
REMARK                            x       y       z     vdW  Elec       q    Type
REMARK                         _______ _______ _______ _____ _____    ______ ____
ROOT
ATOM      1  C   UNL     1      48.420 160.846  30.698  0.00  0.00    +0.091 C 
ATOM      2  C   UNL     1      49.592 161.591  31.268  0.00  0.00    +0.108 C 
ATOM      3  N   UNL     1      50.597 160.764  31.841  0.00  0.00    -0.217 NA
ATOM      4  C   UNL     1      50.944 159.587  31.129  0.00  0.00    +0.081 C 
ATOM      5  C   UNL     1      49.750 158.828  30.609  0.00  0.00    +0.037 C 
ATOM      6  C   UNL     1      48.953 159.757  29.754  0.00  0.00    +0.027 C 
ATOM      7  C   UNL     1      50.181 157.584  29.942  0.00  0.00    -0.038 C 
ATOM      8  C   UNL     1      49.293 156.537  29.822  0.00  0.00    +0.048 C 
ATOM      9  C   UNL     1      49.766 155.400  29.203  0.00  0.00    -0.020 C 
ATOM     10  C   UNL     1      51.066 155.308  28.724  0.00  0.00    +0.015 C 
ATOM     11  C   UNL     1      51.957 156.369  28.848  0.00  0.00    +0.080 C 
ATOM     12  N   UNL     1      53.177 156.570  28.511  0.00  0.00    -0.244 NA
ATOM     13  C   UNL     1      53.616 157.889  28.892  0.00  0.00    +0.095 C 
ATOM     14  C   UNL     1      52.380 158.449  29.529  0.00  0.00    -0.001 C 
ATOM     15  C   UNL     1      51.470 157.506  29.471  0.00  0.00    +0.008 C 
ATOM     16  C   UNL     1      52.032 159.742  30.134  0.00  0.00    +0.046 C 
ENDROOT
BRANCH   1  17
ATOM     17  N   UNL     1      47.563 161.667  29.898  0.00  0.00    -0.288 N 
ATOM     18  C   UNL     1      46.233 161.975  30.267  0.00  0.00    +0.322 C 
ATOM     19  O   UNL     1      45.789 161.514  31.329  0.00  0.00    -0.251 OA
ATOM     20  N   UNL     1      45.415 162.781  29.465  0.00  0.00    -0.155 N 
ATOM     21  H   UNL     1      47.915 162.033  29.054  0.00  0.00    +0.151 HD
ATOM     22  H   UNL     1      45.755 163.153  28.619  0.00  0.00    +0.182 HD
BRANCH  20  23
ATOM     23  N   UNL     1      44.108 163.049  29.885  0.00  0.00    +0.050 NA
ATOM     24  O   UNL     1      43.412 163.914  29.336  0.00  0.00    -0.126 OA
ENDBRANCH  20  23
ENDBRANCH   1  17
TORSDOF 2
