REMARK  Name = =
REMARK  2 active torsions:
REMARK  status: ('A' for Active; 'I' for Inactive)
REMARK    1  A    between atoms: O_2  and  O_12
REMARK    2  A    between atoms: O_11  and  O_13
REMARK                            x       y       z     vdW  Elec       q    Type
REMARK                         _______ _______ _______ _____ _____    ______ ____
ROOT
ATOM      1  P   UNL     1      54.098 155.393  25.236  0.00  0.00    +0.000 P 
ENDROOT
TORSDOF 0
REMARK  Name = =
REMARK  2 active torsions:
REMARK  status: ('A' for Active; 'I' for Inactive)
REMARK    1  A    between atoms: O_2  and  O_12
REMARK    2  A    between atoms: O_11  and  O_13
REMARK                            x       y       z     vdW  Elec       q    Type
REMARK                         _______ _______ _______ _____ _____    ______ ____
ROOT
ATOM      1  O   UNL     1      54.466 156.798  25.089  0.00  0.00    -0.253 OA
ATOM      2  H   UNL     1      53.682 156.400  25.500  0.00  0.00    +0.253 HD
ENDROOT
BRANCH   1   3
ATOM      3  O   UNL     1      55.680 155.567  24.837  0.00  0.00    -0.253 OA
ATOM      4  H   UNL     1      56.464 155.965  24.426  0.00  0.00    +0.253 HD
ENDBRANCH   1   3
TORSDOF 1
REMARK  Name = =
REMARK  2 active torsions:
REMARK  status: ('A' for Active; 'I' for Inactive)
REMARK    1  A    between atoms: O_2  and  O_12
REMARK    2  A    between atoms: O_11  and  O_13
REMARK                            x       y       z     vdW  Elec       q    Type
REMARK                         _______ _______ _______ _____ _____    ______ ____
ROOT
ATOM      1  N   UNL     1      52.551 155.816  27.549  0.00  0.00    -0.272 N 
ATOM      2  C   UNL     1      51.705 155.251  28.569  0.00  0.00    +0.094 C 
ATOM      3  C   UNL     1      51.214 156.224  29.574  0.00  0.00    +0.022 C 
ATOM      4  C   UNL     1      52.202 157.350  29.804  0.00  0.00    +0.004 C 
ATOM      5  C   UNL     1      52.317 158.083  28.481  0.00  0.00    +0.022 C 
ATOM      6  C   UNL     1      52.928 157.191  27.440  0.00  0.00    +0.094 C 
ATOM      7  C   UNL     1      53.048 154.922  26.573  0.00  0.00    +0.303 C 
ATOM      8  O   UNL     1      52.754 153.732  26.624  0.00  0.00    -0.265 OA
ENDROOT
TORSDOF 0
REMARK  Name = =
REMARK  2 active torsions:
REMARK  status: ('A' for Active; 'I' for Inactive)
REMARK    1  A    between atoms: O_2  and  O_12
REMARK    2  A    between atoms: O_11  and  O_13
REMARK                            x       y       z     vdW  Elec       q    Type
REMARK                         _______ _______ _______ _____ _____    ______ ____
ROOT
ATOM      1  O   UNL     1      53.023 155.870  24.053  0.00  0.00    -0.253 OA
ATOM      2  H   UNL     1      53.385 156.460  23.374  0.00  0.00    +0.253 HD
ENDROOT
BRANCH   1   3
ATOM      3  O   UNL     1      53.851 154.325  23.986  0.00  0.00    -0.253 OA
ATOM      4  H   UNL     1      53.489 153.735  24.665  0.00  0.00    +0.253 HD
ENDBRANCH   1   3
TORSDOF 1
