REMARK  Name = =
REMARK  5 active torsions:
REMARK  status: ('A' for Active; 'I' for Inactive)
REMARK    1  A    between atoms: P_1  and  O_2
REMARK    2  A    between atoms: P_1  and  O_12
REMARK    3  A    between atoms: P_1  and  O_13
REMARK    4  A    between atoms: O_2  and  O_11
REMARK    5  A    between atoms: O_13  and  S_14
REMARK                            x       y       z     vdW  Elec       q    Type
REMARK                         _______ _______ _______ _____ _____    ______ ____
ROOT
ATOM      1  P   UNL     1      53.428 154.502  25.549  0.00  0.00    +0.262 P 
ATOM      2  H   UNL     1      52.847 154.827  26.758  0.00  0.00    +0.145 HD
ENDROOT
BRANCH   1   3
ATOM      3  O   UNL     1      52.031 153.818  24.937  0.00  0.00    -0.335 OA
ATOM      4  H   UNL     1      52.197 153.494  24.038  0.00  0.00    +0.219 HD
ENDBRANCH   1   3
BRANCH   1   5
ATOM      5  O   UNL     1      54.916 154.240  25.507  0.00  0.00    -0.168 OA
BRANCH   5   6
ATOM      6  O   UNL     1      54.173 153.142  26.238  0.00  0.00    -0.243 OA
ATOM      7  H   UNL     1      54.805 152.472  26.543  0.00  0.00    +0.254 HD
ENDBRANCH   5   6
ENDBRANCH   1   5
BRANCH   1   8
ATOM      8  O   UNL     1      54.189 154.916  24.108  0.00  0.00    -0.252 OA
BRANCH   8   9
ATOM      9  S   UNL     1      54.660 153.520  23.264  0.00  0.00    -0.015 S 
ATOM     10  H   UNL     1      55.273 153.877  22.103  0.00  0.00    +0.134 HD
ENDBRANCH   8   9
ENDBRANCH   1   8
TORSDOF 5
REMARK  Name = =
REMARK  5 active torsions:
REMARK  status: ('A' for Active; 'I' for Inactive)
REMARK    1  A    between atoms: P_1  and  O_2
REMARK    2  A    between atoms: P_1  and  O_12
REMARK    3  A    between atoms: P_1  and  O_13
REMARK    4  A    between atoms: O_2  and  O_11
REMARK    5  A    between atoms: O_13  and  S_14
REMARK                            x       y       z     vdW  Elec       q    Type
REMARK                         _______ _______ _______ _____ _____    ______ ____
ROOT
ATOM      1  N   UNL     1      52.760 156.063  27.790  0.00  0.00    -0.272 N 
ATOM      2  C   UNL     1      52.753 157.300  28.543  0.00  0.00    +0.094 C 
ATOM      3  C   UNL     1      51.437 157.598  29.185  0.00  0.00    +0.022 C 
ATOM      4  C   UNL     1      50.922 156.405  29.963  0.00  0.00    +0.004 C 
ATOM      5  C   UNL     1      50.752 155.275  28.955  0.00  0.00    +0.022 C 
ATOM      6  C   UNL     1      52.105 154.917  28.385  0.00  0.00    +0.094 C 
ATOM      7  C   UNL     1      53.388 156.009  26.530  0.00  0.00    +0.303 C 
ATOM      8  O   UNL     1      53.943 157.033  26.057  0.00  0.00    -0.265 OA
ENDROOT
TORSDOF 0
