REMARK  Name = =
REMARK  1 active torsions:
REMARK  status: ('A' for Active; 'I' for Inactive)
REMARK    1  A    between atoms: O_2  and  O_12
REMARK                            x       y       z     vdW  Elec       q    Type
REMARK                         _______ _______ _______ _____ _____    ______ ____
ROOT
ATOM      1  P   UNL     1      53.761 153.600  26.524  0.00  0.00    +0.000 P 
ENDROOT
TORSDOF 0
REMARK  Name = =
REMARK  1 active torsions:
REMARK  status: ('A' for Active; 'I' for Inactive)
REMARK    1  A    between atoms: O_2  and  O_12
REMARK                            x       y       z     vdW  Elec       q    Type
REMARK                         _______ _______ _______ _____ _____    ______ ____
ROOT
ATOM      1  O   UNL     1      54.584 153.185  27.699  0.00  0.00    -0.253 OA
ATOM      2  H   UNL     1      53.748 153.490  28.084  0.00  0.00    +0.253 HD
ENDROOT
BRANCH   1   3
ATOM      3  O   UNL     1      54.261 151.989  26.492  0.00  0.00    -0.253 OA
ATOM      4  H   UNL     1      55.097 151.684  26.107  0.00  0.00    +0.253 HD
ENDBRANCH   1   3
TORSDOF 1
REMARK  Name = =
REMARK  1 active torsions:
REMARK  status: ('A' for Active; 'I' for Inactive)
REMARK    1  A    between atoms: O_2  and  O_12
REMARK                            x       y       z     vdW  Elec       q    Type
REMARK                         _______ _______ _______ _____ _____    ______ ____
ROOT
ATOM      1  N   UNL     1      52.045 154.700  28.436  0.00  0.00    -0.272 N 
ATOM      2  C   UNL     1      52.495 156.006  28.040  0.00  0.00    +0.094 C 
ATOM      3  C   UNL     1      52.241 157.007  29.144  0.00  0.00    +0.022 C 
ATOM      4  C   UNL     1      50.854 157.009  29.684  0.00  0.00    +0.004 C 
ATOM      5  C   UNL     1      50.108 155.785  29.209  0.00  0.00    +0.022 C 
ATOM      6  C   UNL     1      51.059 154.606  29.478  0.00  0.00    +0.094 C 
ATOM      7  C   UNL     1      52.545 153.544  27.825  0.00  0.00    +0.303 C 
ATOM      8  O   UNL     1      52.101 152.417  28.231  0.00  0.00    -0.265 OA
ENDROOT
TORSDOF 0
REMARK  Name = =
REMARK  1 active torsions:
REMARK  status: ('A' for Active; 'I' for Inactive)
REMARK    1  A    between atoms: O_2  and  O_12
REMARK                            x       y       z     vdW  Elec       q    Type
REMARK                         _______ _______ _______ _____ _____    ______ ____
ROOT
ATOM      1  O   HOH     1      53.806 155.203  26.065  0.00  0.00    -0.253 OA
ATOM      2  H   HOH     0      54.776 155.203  26.065  0.00  0.00    +0.253 HD
ENDROOT
TORSDOF 0
REMARK  Name = =
REMARK  1 active torsions:
REMARK  status: ('A' for Active; 'I' for Inactive)
REMARK    1  A    between atoms: O_2  and  O_12
REMARK                            x       y       z     vdW  Elec       q    Type
REMARK                         _______ _______ _______ _____ _____    ______ ____
ROOT
ATOM      1  O   UNL     1      52.745 153.332  25.176  0.00  0.00    -0.232 OA
ATOM      2  S   UNL     1      53.681 152.413  24.050  0.00  0.00    +0.183 S 
ATOM      3  I   UNL     1      55.123 153.946  22.775  0.00  0.00    +0.049 I 
ENDROOT
TORSDOF 0
