REMARK  Name = =
REMARK  3 active torsions:
REMARK  status: ('A' for Active; 'I' for Inactive)
REMARK    1  A    between atoms: P_1  and  C_9
REMARK    2  A    between atoms: P_1  and  O_11
REMARK    3  A    between atoms: P_1  and  O_13
REMARK                            x       y       z     vdW  Elec       q    Type
REMARK                         _______ _______ _______ _____ _____    ______ ____
ROOT
ATOM      1  N   UNL     1      53.988 152.938  26.061  0.00  0.00    -0.273 N 
ATOM      2  C   UNL     1      53.212 153.102  24.866  0.00  0.00    +0.094 C 
ATOM      3  C   UNL     1      54.103 152.908  23.623  0.00  0.00    +0.022 C 
ATOM      4  C   UNL     1      55.381 153.666  23.745  0.00  0.00    +0.004 C 
ATOM      5  C   UNL     1      56.092 153.457  25.047  0.00  0.00    +0.022 C 
ATOM      6  C   UNL     1      55.347 152.461  25.870  0.00  0.00    +0.094 C 
ATOM      7  C   UNL     1      53.579 153.188  27.377  0.00  0.00    +0.294 C 
ATOM      8  O   UNL     1      54.331 152.977  28.382  0.00  0.00    -0.265 OA
ENDROOT
BRANCH   7   9
ATOM      9  P   UNL     1      51.977 153.817  27.668  0.00  0.00    +0.260 P 
BRANCH   9  10
ATOM     10  O   UNL     1      51.632 154.531  26.175  0.00  0.00    -0.343 OA
ATOM     11  H   UNL     1      52.122 154.071  25.476  0.00  0.00    +0.217 HD
ENDBRANCH   9  10
BRANCH   9  12
ATOM     12  O   UNL     1      50.924 155.113  27.614  0.00  0.00    -0.343 OA
ATOM     13  H   UNL     1      50.614 155.315  28.511  0.00  0.00    +0.217 HD
ENDBRANCH   9  12
ENDBRANCH   7   9
TORSDOF 3
REMARK  Name = =
REMARK  3 active torsions:
REMARK  status: ('A' for Active; 'I' for Inactive)
REMARK    1  A    between atoms: P_1  and  C_9
REMARK    2  A    between atoms: P_1  and  O_11
REMARK    3  A    between atoms: P_1  and  O_13
REMARK                            x       y       z     vdW  Elec       q    Type
REMARK                         _______ _______ _______ _____ _____    ______ ____
ROOT
ATOM      1  O   UNL     1      52.018 152.678  28.636  0.00  0.00    -0.038 OA
ATOM      2  O   UNL     1      50.967 152.522  27.372  0.00  0.00    -0.218 OA
ATOM      3  H   UNL     1      51.399 152.814  26.554  0.00  0.00    +0.256 HD
ENDROOT
TORSDOF 0
REMARK  Name = =
REMARK  3 active torsions:
REMARK  status: ('A' for Active; 'I' for Inactive)
REMARK    1  A    between atoms: P_1  and  C_9
REMARK    2  A    between atoms: P_1  and  O_11
REMARK    3  A    between atoms: P_1  and  O_13
REMARK                            x       y       z     vdW  Elec       q    Type
REMARK                         _______ _______ _______ _____ _____    ______ ____
ROOT
ATOM      1  S   UNL     1      50.785 155.689  29.250  0.00  0.00    +0.000 S 
ENDROOT
TORSDOF 0
REMARK  Name = =
REMARK  3 active torsions:
REMARK  status: ('A' for Active; 'I' for Inactive)
REMARK    1  A    between atoms: P_1  and  C_9
REMARK    2  A    between atoms: P_1  and  O_11
REMARK    3  A    between atoms: P_1  and  O_13
REMARK                            x       y       z     vdW  Elec       q    Type
REMARK                         _______ _______ _______ _____ _____    ______ ____
ROOT
ATOM      1  I   UNL     1      51.625 157.987  29.314  0.00  0.00    -0.107 I 
ATOM      2  H   UNL     1      53.186 157.987  29.314  0.00  0.00    +0.107 HD
ENDROOT
TORSDOF 0
REMARK  Name = =
REMARK  3 active torsions:
REMARK  status: ('A' for Active; 'I' for Inactive)
REMARK    1  A    between atoms: P_1  and  C_9
REMARK    2  A    between atoms: P_1  and  O_11
REMARK    3  A    between atoms: P_1  and  O_13
REMARK                            x       y       z     vdW  Elec       q    Type
REMARK                         _______ _______ _______ _____ _____    ______ ____
ROOT
ATOM      1  N   UNL     1      50.013 159.209  29.730  0.00  0.00    -0.273 NA
ATOM      2  H   UNL     1      51.033 159.209  29.730  0.00  0.00    +0.137 HD
ATOM      3  H   UNL     1      49.673 158.418  30.277  0.00  0.00    +0.137 HD
ENDROOT
TORSDOF 0
