REMARK  Name = =
REMARK  5 active torsions:
REMARK  status: ('A' for Active; 'I' for Inactive)
REMARK    1  A    between atoms: P_1  and  C_9
REMARK    2  A    between atoms: P_1  and  O_11
REMARK    3  A    between atoms: P_1  and  O_12
REMARK    4  A    between atoms: P_1  and  O_13
REMARK    5  A    between atoms: N_16  and  C_17
REMARK                            x       y       z     vdW  Elec       q    Type
REMARK                         _______ _______ _______ _____ _____    ______ ____
ROOT
ATOM      1  P   UNL     1      52.076 154.883  28.197  0.00  0.00    +0.253 P 
ATOM      2  H   UNL     1      52.281 153.669  28.820  0.00  0.00    +0.143 HD
ENDROOT
BRANCH   1   9
ATOM      3  N   UNL     1      53.144 153.622  25.921  0.00  0.00    -0.272 N 
ATOM      4  C   UNL     1      53.382 152.412  26.689  0.00  0.00    +0.094 C 
ATOM      5  C   UNL     1      52.979 151.251  25.771  0.00  0.00    +0.022 C 
ATOM      6  C   UNL     1      54.065 151.176  24.695  0.00  0.00    +0.004 C 
ATOM      7  C   UNL     1      54.584 152.533  24.335  0.00  0.00    +0.022 C 
ATOM      8  C   UNL     1      53.527 153.592  24.525  0.00  0.00    +0.094 C 
ATOM      9  C   UNL     1      52.564 154.786  26.500  0.00  0.00    +0.303 C 
ATOM     10  O   UNL     1      52.387 155.797  25.774  0.00  0.00    -0.264 OA
ENDBRANCH   1   9
BRANCH   1  12
ATOM     11  O   UNL     1      53.125 155.407  29.147  0.00  0.00    -0.028 OA
ATOM     12  O   UNL     1      52.750 156.280  28.839  0.00  0.00    -0.135 OA
ENDBRANCH   1  12
BRANCH   1  13
ATOM     13  O   UNL     1      53.109 153.666  28.746  0.00  0.00    -0.336 OA
ATOM     14  H   UNL     1      54.026 153.902  28.538  0.00  0.00    +0.218 HD
ENDBRANCH   1  13
BRANCH   1  15
ATOM     15  O   UNL     1      50.553 154.392  28.671  0.00  0.00    -0.336 OA
ATOM     16  H   UNL     1      49.901 155.058  28.404  0.00  0.00    +0.218 HD
ENDBRANCH   1  15
TORSDOF 4
REMARK  Name = =
REMARK  5 active torsions:
REMARK  status: ('A' for Active; 'I' for Inactive)
REMARK    1  A    between atoms: P_1  and  C_9
REMARK    2  A    between atoms: P_1  and  O_11
REMARK    3  A    between atoms: P_1  and  O_12
REMARK    4  A    between atoms: P_1  and  O_13
REMARK    5  A    between atoms: N_16  and  C_17
REMARK                            x       y       z     vdW  Elec       q    Type
REMARK                         _______ _______ _______ _____ _____    ______ ____
ROOT
ATOM      1  S   UNL     1      51.964 157.638  28.104  0.00  0.00    +0.000 S 
ENDROOT
TORSDOF 0
REMARK  Name = =
REMARK  5 active torsions:
REMARK  status: ('A' for Active; 'I' for Inactive)
REMARK    1  A    between atoms: P_1  and  C_9
REMARK    2  A    between atoms: P_1  and  O_11
REMARK    3  A    between atoms: P_1  and  O_12
REMARK    4  A    between atoms: P_1  and  O_13
REMARK    5  A    between atoms: N_16  and  C_17
REMARK                            x       y       z     vdW  Elec       q    Type
REMARK                         _______ _______ _______ _____ _____    ______ ____
ROOT
ATOM      1  I   UNL     1      50.250 158.407  29.676  0.00  0.00    -0.107 I 
ATOM      2  H   UNL     1      51.811 158.407  29.676  0.00  0.00    +0.107 HD
ENDROOT
TORSDOF 0
REMARK  Name = =
REMARK  5 active torsions:
REMARK  status: ('A' for Active; 'I' for Inactive)
REMARK    1  A    between atoms: P_1  and  C_9
REMARK    2  A    between atoms: P_1  and  O_11
REMARK    3  A    between atoms: P_1  and  O_12
REMARK    4  A    between atoms: P_1  and  O_13
REMARK    5  A    between atoms: N_16  and  C_17
REMARK                            x       y       z     vdW  Elec       q    Type
REMARK                         _______ _______ _______ _____ _____    ______ ____
ROOT
ATOM      1  C   UNL     1      50.859 160.370  31.777  0.00  0.00    +0.098 C 
ATOM      2  C   UNL     1      49.578 159.683  32.203  0.00  0.00    +0.131 C 
ATOM      3  O   UNL     1      49.205 160.489  33.302  0.00  0.00    -0.357 OA
ATOM      4  C   UNL     1      49.207 161.765  32.709  0.00  0.00    +0.117 C 
ATOM      5  C   UNL     1      50.601 161.806  32.097  0.00  0.00    +0.049 C 
ATOM      6  C   UNL     1      48.245 161.517  31.543  0.00  0.00    +0.032 C 
ATOM      7  C   UNL     1      48.504 160.053  31.202  0.00  0.00    +0.033 C 
ENDROOT
BRANCH   1   8
ATOM      8  N   UNL     1      51.004 160.222  30.354  0.00  0.00    -0.244 NA
ATOM      9  H   UNL     1      51.863 160.680  30.050  0.00  0.00    +0.141 HD
ENDBRANCH   1   8
TORSDOF 1
