REMARK  Name = =
REMARK  2 active torsions:
REMARK  status: ('A' for Active; 'I' for Inactive)
REMARK    1  A    between atoms: N_16  and  C_17
REMARK    2  A    between atoms: C_17  and  N_24
REMARK                            x       y       z     vdW  Elec       q    Type
REMARK                         _______ _______ _______ _____ _____    ______ ____
ROOT
ATOM      1  O   UNL     1      50.658 154.790  28.409  0.00  0.00    -0.038 OA
ATOM      2  O   UNL     1      51.052 153.753  27.178  0.00  0.00    -0.218 OA
ATOM      3  H   UNL     1      50.553 152.927  27.279  0.00  0.00    +0.256 HD
ENDROOT
TORSDOF 0
REMARK  Name = =
REMARK  2 active torsions:
REMARK  status: ('A' for Active; 'I' for Inactive)
REMARK    1  A    between atoms: N_16  and  C_17
REMARK    2  A    between atoms: C_17  and  N_24
REMARK                            x       y       z     vdW  Elec       q    Type
REMARK                         _______ _______ _______ _____ _____    ______ ____
ROOT
ATOM      1  P   UNL     1      52.271 154.622  27.992  0.00  0.00    +0.000 P 
ENDROOT
TORSDOF 0
REMARK  Name = =
REMARK  2 active torsions:
REMARK  status: ('A' for Active; 'I' for Inactive)
REMARK    1  A    between atoms: N_16  and  C_17
REMARK    2  A    between atoms: C_17  and  N_24
REMARK                            x       y       z     vdW  Elec       q    Type
REMARK                         _______ _______ _______ _____ _____    ______ ____
ROOT
ATOM      1  O   HOH     1      53.588 154.076  28.554  0.00  0.00    -0.253 OA
ATOM      2  H   HOH     0      54.558 154.076  28.554  0.00  0.00    +0.253 HD
ENDROOT
TORSDOF 0
REMARK  Name = =
REMARK  2 active torsions:
REMARK  status: ('A' for Active; 'I' for Inactive)
REMARK    1  A    between atoms: N_16  and  C_17
REMARK    2  A    between atoms: C_17  and  N_24
REMARK                            x       y       z     vdW  Elec       q    Type
REMARK                         _______ _______ _______ _____ _____    ______ ____
ROOT
ATOM      1  N   UNL     1      53.913 154.486  25.765  0.00  0.00    -0.272 N 
ATOM      2  C   UNL     1      53.921 153.061  25.880  0.00  0.00    +0.094 C 
ATOM      3  C   UNL     1      53.535 152.373  24.590  0.00  0.00    +0.022 C 
ATOM      4  C   UNL     1      54.090 153.117  23.392  0.00  0.00    +0.004 C 
ATOM      5  C   UNL     1      55.212 154.047  23.804  0.00  0.00    +0.022 C 
ATOM      6  C   UNL     1      54.628 155.113  24.693  0.00  0.00    +0.094 C 
ATOM      7  C   UNL     1      53.197 155.297  26.695  0.00  0.00    +0.303 C 
ATOM      8  O   UNL     1      53.278 156.550  26.515  0.00  0.00    -0.265 OA
ENDROOT
TORSDOF 0
REMARK  Name = =
REMARK  2 active torsions:
REMARK  status: ('A' for Active; 'I' for Inactive)
REMARK    1  A    between atoms: N_16  and  C_17
REMARK    2  A    between atoms: C_17  and  N_24
REMARK                            x       y       z     vdW  Elec       q    Type
REMARK                         _______ _______ _______ _____ _____    ______ ____
ROOT
ATOM      1  O   UNL     1      51.588 156.017  28.679  0.00  0.00    -0.318 OA
ATOM      2  S   UNL     1      50.687 155.723  29.835  0.00  0.00    +0.090 S 
ATOM      3  H   UNL     1      51.808 155.190  28.222  0.00  0.00    +0.228 HD
ENDROOT
TORSDOF 0
REMARK  Name = =
REMARK  2 active torsions:
REMARK  status: ('A' for Active; 'I' for Inactive)
REMARK    1  A    between atoms: N_16  and  C_17
REMARK    2  A    between atoms: C_17  and  N_24
REMARK                            x       y       z     vdW  Elec       q    Type
REMARK                         _______ _______ _______ _____ _____    ______ ____
ROOT
ATOM      1  I   UNL     1      51.639 157.939  29.456  0.00  0.00    -0.107 I 
ATOM      2  H   UNL     1      53.200 157.939  29.456  0.00  0.00    +0.107 HD
ENDROOT
TORSDOF 0
REMARK  Name = =
REMARK  2 active torsions:
REMARK  status: ('A' for Active; 'I' for Inactive)
REMARK    1  A    between atoms: N_16  and  C_17
REMARK    2  A    between atoms: C_17  and  N_24
REMARK                            x       y       z     vdW  Elec       q    Type
REMARK                         _______ _______ _______ _____ _____    ______ ____
ROOT
ATOM      1  C   UNL     1      50.518 160.304  30.749  0.00  0.00    +0.123 C 
ATOM      2  C   UNL     1      49.996 161.008  31.985  0.00  0.00    +0.143 C 
ATOM      3  O   UNL     1      49.043 161.866  31.398  0.00  0.00    -0.356 OA
ATOM      4  C   UNL     1      48.230 160.897  30.763  0.00  0.00    +0.118 C 
ATOM      5  C   UNL     1      49.232 160.018  30.000  0.00  0.00    +0.063 C 
ATOM      6  C   UNL     1      47.812 160.074  31.975  0.00  0.00    +0.032 C 
ATOM      7  C   UNL     1      49.133 159.974  32.721  0.00  0.00    +0.035 C 
ENDROOT
BRANCH   1   8
ATOM      8  N   UNL     1      51.353 161.185  29.966  0.00  0.00    -0.309 NA
ATOM      9  H   UNL     1      52.217 161.375  30.474  0.00  0.00    +0.120 HD
ATOM     10  H   UNL     1      50.859 162.061  29.797  0.00  0.00    +0.120 HD
ENDBRANCH   1   8
BRANCH   1  11
ATOM     11  N   UNL     1      51.202 159.077  31.114  0.00  0.00    -0.232 NA
ATOM     12  H   UNL     1      50.575 158.489  31.664  0.00  0.00    +0.143 HD
ENDBRANCH   1  11
TORSDOF 2
