MODEL 1
REMARK VINA RESULT:    -7.780      0.000      0.000
REMARK INTER + INTRA:         -11.550
REMARK INTER:                 -11.646
REMARK INTRA:                   0.097
REMARK UNBOUND:                 0.097
REMARK  Name = =
REMARK  10 active torsions:
REMARK  status: ('A' for Active; 'I' for Inactive)
REMARK    1  A    between atoms: C_1  and  C_24
REMARK    2  A    between atoms: C_1  and  C_31
REMARK    3  A    between atoms: C_7  and  O_30
REMARK    4  A    between atoms: C_15  and  O_29
REMARK    5  A    between atoms: C_18  and  O_28
REMARK    6  A    between atoms: C_31  and  O_33
REMARK    7  A    between atoms: O_33  and  O_34
REMARK    8  A    between atoms: O_34  and  N_35
REMARK    9  A    between atoms: N_35  and  C_36
REMARK   10  A    between atoms: C_36  and  C_38
REMARK                            x       y       z     vdW  Elec       q    Type
REMARK                         _______ _______ _______ _____ _____    ______ ____
ROOT
ATOM      1  C   UNL     1      58.938 160.901  41.064  0.00  0.00    +0.137 C 
ATOM      2  C   UNL     1      59.825 159.705  41.234  0.00  0.00    +0.020 C 
ATOM      3  C   UNL     1      59.366 158.702  42.240  0.00  0.00    +0.006 C 
ATOM      4  C   UNL     1      57.997 158.169  41.842  0.00  0.00    +0.026 C 
ATOM      5  C   UNL     1      57.080 159.358  41.691  0.00  0.00    -0.022 C 
ATOM      6  C   UNL     1      57.532 160.600  41.353  0.00  0.00    +0.021 C 
ATOM      7  C   UNL     1      56.608 161.670  41.255  0.00  0.00    +0.133 C 
ATOM      8  C   UNL     1      55.253 161.405  41.512  0.00  0.00    +0.075 C 
ATOM      9  C   UNL     1      54.807 160.153  41.851  0.00  0.00    +0.045 C 
ATOM     10  C   UNL     1      55.725 159.144  41.936  0.00  0.00    -0.001 C 
ATOM     11  C   UNL     1      53.377 159.962  42.100  0.00  0.00    +0.199 C 
ATOM     12  O   UNL     1      53.005 158.810  42.407  0.00  0.00    -0.286 OA
ATOM     13  C   UNL     1      52.418 161.068  41.999  0.00  0.00    +0.079 C 
ATOM     14  C   UNL     1      52.852 162.342  41.657  0.00  0.00    +0.079 C 
ATOM     15  C   UNL     1      52.004 163.434  41.543  0.00  0.00    +0.137 C 
ATOM     16  C   UNL     1      50.683 163.222  41.783  0.00  0.00    +0.040 C 
ATOM     17  C   UNL     1      50.216 161.984  42.121  0.00  0.00    +0.040 C 
ATOM     18  C   UNL     1      51.066 160.875  42.240  0.00  0.00    +0.137 C 
ATOM     19  C   UNL     1      54.295 162.500  41.413  0.00  0.00    +0.202 C 
ATOM     20  O   UNL     1      54.670 163.661  41.104  0.00  0.00    -0.286 OA
ENDROOT
BRANCH   1  24
ATOM     21  N   UNL     1      59.088 160.800  37.353  0.00  0.00    -0.280 N 
ATOM     22  C   UNL     1      58.879 160.426  38.652  0.00  0.00    +0.246 C 
ATOM     23  O   UNL     1      58.478 159.264  38.811  0.00  0.00    -0.270 OA
ATOM     24  C   UNL     1      59.124 161.332  39.651  0.00  0.00    +0.045 C 
ATOM     25  C   UNL     1      59.562 162.573  39.342  0.00  0.00    +0.002 C 
ATOM     26  C   UNL     1      59.768 162.939  38.004  0.00  0.00    +0.016 C 
ATOM     27  C   UNL     1      59.521 162.022  37.011  0.00  0.00    +0.064 C 
ATOM     28  H   UNL     1      58.912 160.144  36.640  0.00  0.00    +0.155 HD
ENDBRANCH   1  24
BRANCH  18  29
ATOM     29  O   UNL     1      50.544 159.666  42.579  0.00  0.00    -0.505 OA
ATOM     30  H   UNL     1      50.560 158.959  41.964  0.00  0.00    +0.292 HD
ENDBRANCH  18  29
BRANCH  15  31
ATOM     31  O   UNL     1      52.520 164.676  41.197  0.00  0.00    -0.505 OA
ATOM     32  H   UNL     1      52.071 165.458  41.452  0.00  0.00    +0.292 HD
ENDBRANCH  15  31
BRANCH   7  33
ATOM     33  O   UNL     1      56.903 162.929  40.939  0.00  0.00    -0.506 OA
ATOM     34  H   UNL     1      57.223 163.515  41.598  0.00  0.00    +0.292 HD
ENDBRANCH   7  33
BRANCH   1  35
ATOM     35  C   UNL     1      59.464 161.930  42.033  0.00  0.00    +0.360 C 
ATOM     36  O   UNL     1      58.794 162.229  43.034  0.00  0.00    -0.246 OA
BRANCH  35  37
ATOM     37  O   UNL     1      60.681 162.570  41.858  0.00  0.00    -0.278 OA
BRANCH  37  38
ATOM     38  O   UNL     1      61.864 162.008  42.008  0.00  0.00    -0.086 OA
BRANCH  38  39
ATOM     39  N   UNL     1      62.764 162.342  41.073  0.00  0.00    -0.142 NA
ATOM     40  H   UNL     1      63.384 163.068  41.432  0.00  0.00    +0.159 HD
BRANCH  39  41
ATOM     41  C   UNL     1      63.532 161.156  40.745  0.00  0.00    +0.148 C 
ATOM     42  C   UNL     1      62.921 160.424  39.587  0.00  0.00    +0.028 C 
BRANCH  41  43
ATOM     43  C   UNL     1      63.476 160.259  41.933  0.00  0.00    +0.225 C 
ATOM     44  O   UNL     1      64.463 159.862  42.526  0.00  0.00    -0.287 OA
ENDBRANCH  41  43
ENDBRANCH  39  41
ENDBRANCH  38  39
ENDBRANCH  37  38
ENDBRANCH  35  37
ENDBRANCH   1  35
TORSDOF 10
ENDMDL
