REMARK  Name = =
REMARK  10 active torsions:
REMARK  status: ('A' for Active; 'I' for Inactive)
REMARK    1  A    between atoms: C_1  and  C_24
REMARK    2  A    between atoms: C_1  and  C_31
REMARK    3  A    between atoms: C_7  and  O_30
REMARK    4  A    between atoms: C_15  and  O_29
REMARK    5  A    between atoms: C_18  and  O_28
REMARK    6  A    between atoms: C_31  and  O_33
REMARK    7  A    between atoms: O_33  and  O_34
REMARK    8  A    between atoms: O_34  and  N_35
REMARK    9  A    between atoms: N_35  and  C_36
REMARK   10  A    between atoms: C_36  and  C_38
REMARK                            x       y       z     vdW  Elec       q    Type
REMARK                         _______ _______ _______ _____ _____    ______ ____
ROOT
ATOM      1  C   UNL     1      53.586 153.368  26.713  0.00  0.00    +0.137 C 
ATOM      2  C   UNL     1      53.065 152.022  26.308  0.00  0.00    +0.020 C 
ATOM      3  C   UNL     1      52.016 151.444  27.198  0.00  0.00    +0.006 C 
ATOM      4  C   UNL     1      50.813 152.376  27.240  0.00  0.00    +0.026 C 
ATOM      5  C   UNL     1      51.312 153.733  27.673  0.00  0.00    -0.022 C 
ATOM      6  C   UNL     1      52.586 154.159  27.439  0.00  0.00    +0.021 C 
ATOM      7  C   UNL     1      52.984 155.439  27.899  0.00  0.00    +0.133 C 
ATOM      8  C   UNL     1      52.040 156.223  28.583  0.00  0.00    +0.075 C 
ATOM      9  C   UNL     1      50.761 155.787  28.814  0.00  0.00    +0.045 C 
ATOM     10  C   UNL     1      50.411 154.547  28.356  0.00  0.00    -0.001 C 
ATOM     11  C   UNL     1      49.839 156.668  29.534  0.00  0.00    +0.199 C 
ATOM     12  O   UNL     1      48.682 156.239  29.727  0.00  0.00    -0.286 OA
ATOM     13  C   UNL     1      50.248 157.994  30.011  0.00  0.00    +0.079 C 
ATOM     14  C   UNL     1      51.540 158.451  29.786  0.00  0.00    +0.079 C 
ATOM     15  C   UNL     1      51.996 159.692  30.208  0.00  0.00    +0.137 C 
ATOM     16  C   UNL     1      51.115 160.484  30.874  0.00  0.00    +0.040 C 
ATOM     17  C   UNL     1      49.836 160.071  31.115  0.00  0.00    +0.040 C 
ATOM     18  C   UNL     1      49.366 158.818  30.693  0.00  0.00    +0.137 C 
ATOM     19  C   UNL     1      52.441 157.541  29.060  0.00  0.00    +0.202 C 
ATOM     20  O   UNL     1      53.607 157.973  28.865  0.00  0.00    -0.286 OA
ENDROOT
BRANCH   1  24
ATOM     21  N   UNL     1      54.645 153.850  23.185  0.00  0.00    -0.280 N 
ATOM     22  C   UNL     1      54.232 153.252  24.343  0.00  0.00    +0.246 C 
ATOM     23  O   UNL     1      54.112 152.020  24.290  0.00  0.00    -0.270 OA
ATOM     24  C   UNL     1      53.991 154.033  25.444  0.00  0.00    +0.045 C 
ATOM     25  C   UNL     1      54.161 155.372  25.370  0.00  0.00    +0.002 C 
ATOM     26  C   UNL     1      54.584 155.968  24.173  0.00  0.00    +0.016 C 
ATOM     27  C   UNL     1      54.824 155.175  23.076  0.00  0.00    +0.064 C 
ATOM     28  H   UNL     1      54.818 153.284  22.398  0.00  0.00    +0.155 HD
ENDBRANCH   1  24
BRANCH  18  29
ATOM     29  O   UNL     1      48.082 158.461  30.961  0.00  0.00    -0.505 OA
ATOM     30  H   UNL     1      47.760 157.626  30.683  0.00  0.00    +0.292 HD
ENDBRANCH  18  29
BRANCH  15  31
ATOM     31  O   UNL     1      53.305 160.073  29.942  0.00  0.00    -0.505 OA
ATOM     32  H   UNL     1      53.877 159.493  29.479  0.00  0.00    +0.292 HD
ENDBRANCH  15  31
BRANCH   7  33
ATOM     33  O   UNL     1      54.189 155.983  27.746  0.00  0.00    -0.506 OA
ATOM     34  H   UNL     1      54.863 155.510  27.298  0.00  0.00    +0.292 HD
ENDBRANCH   7  33
BRANCH   1  35
ATOM     35  C   UNL     1      54.775 153.087  27.597  0.00  0.00    +0.360 C 
ATOM     36  O   UNL     1      54.606 152.910  28.815  0.00  0.00    -0.246 OA
BRANCH  35  37
ATOM     37  O   UNL     1      56.070 153.015  27.110  0.00  0.00    -0.278 OA
BRANCH  37  38
ATOM     38  O   UNL     1      56.509 152.120  26.247  0.00  0.00    -0.086 OA
BRANCH  38  39
ATOM     39  N   UNL     1      57.810 152.229  25.943  0.00  0.00    -0.142 NA
ATOM     40  H   UNL     1      58.039 153.203  25.744  0.00  0.00    +0.159 HD
BRANCH  39  41
ATOM     41  C   UNL     1      58.577 151.766  27.084  0.00  0.00    +0.148 C 
ATOM     42  C   UNL     1      59.418 150.578  26.719  0.00  0.00    +0.028 C 
BRANCH  41  43
ATOM     43  C   UNL     1      57.599 151.332  28.120  0.00  0.00    +0.225 C 
ATOM     44  O   UNL     1      57.685 151.633  29.297  0.00  0.00    -0.287 OA
ENDBRANCH  41  43
ENDBRANCH  39  41
ENDBRANCH  38  39
ENDBRANCH  37  38
ENDBRANCH  35  37
ENDBRANCH   1  35
TORSDOF 10
