REMARK  Name = =
REMARK  0 active torsions:
REMARK  status: ('A' for Active; 'I' for Inactive)
REMARK                            x       y       z     vdW  Elec       q    Type
REMARK                         _______ _______ _______ _____ _____    ______ ____
ROOT
ATOM      1  O   UNL     1      52.100 156.615  28.095  0.00  0.00    -0.476 OA
ATOM      2  C   UNL     1      51.886 156.386  29.486  0.00  0.00    +0.206 C 
ATOM      3  C   UNL     1      51.771 154.928  29.811  0.00  0.00    +0.052 C 
ATOM      4  C   UNL     1      51.118 154.178  28.653  0.00  0.00    +0.033 C 
ATOM      5  C   UNL     1      52.019 154.327  27.482  0.00  0.00    +0.012 C 
ATOM      6  C   UNL     1      52.497 155.600  27.237  0.00  0.00    +0.135 C 
ATOM      7  C   UNL     1      53.328 155.772  26.167  0.00  0.00    +0.037 C 
ATOM      8  C   UNL     1      53.692 154.725  25.344  0.00  0.00    +0.003 C 
ATOM      9  C   UNL     1      53.211 153.455  25.592  0.00  0.00    -0.000 C 
ATOM     10  C   UNL     1      52.372 153.270  26.669  0.00  0.00    -0.001 C 
ENDROOT
TORSDOF 0
