REMARK  Name = =
REMARK  1 active torsions:
REMARK  status: ('A' for Active; 'I' for Inactive)
REMARK    1  A    between atoms: C_2  and  C_11
REMARK                            x       y       z     vdW  Elec       q    Type
REMARK                         _______ _______ _______ _____ _____    ______ ____
ROOT
ATOM      1  O   UNL     1      53.162 155.044  27.236  0.00  0.00    -0.475 OA
ATOM      2  C   UNL     1      54.158 154.513  26.425  0.00  0.00    +0.210 C 
ATOM      3  C   UNL     1      54.195 153.012  26.473  0.00  0.00    +0.052 C 
ATOM      4  C   UNL     1      52.784 152.489  26.564  0.00  0.00    +0.033 C 
ATOM      5  C   UNL     1      52.183 152.998  27.823  0.00  0.00    +0.012 C 
ATOM      6  C   UNL     1      52.395 154.338  28.151  0.00  0.00    +0.135 C 
ATOM      7  C   UNL     1      51.875 154.893  29.299  0.00  0.00    +0.037 C 
ATOM      8  C   UNL     1      51.120 154.143  30.174  0.00  0.00    +0.003 C 
ATOM      9  C   UNL     1      50.909 152.818  29.851  0.00  0.00    -0.000 C 
ATOM     10  C   UNL     1      51.432 152.248  28.691  0.00  0.00    -0.001 C 
ENDROOT
BRANCH   2  11
ATOM     11  C   UNL     1      54.056 154.940  24.976  0.00  0.00    +0.231 C 
ATOM     12  O   UNL     1      54.106 156.315  24.807  0.00  0.00    -0.441 OA
ATOM     13  C   UNL     1      55.133 156.629  23.938  0.00  0.00    +0.342 C 
ATOM     14  O   UNL     1      55.499 157.779  23.530  0.00  0.00    -0.245 OA
ATOM     15  C   UNL     1      55.762 155.379  23.540  0.00  0.00    +0.081 C 
ATOM     16  C   UNL     1      55.130 154.394  24.148  0.00  0.00    +0.027 C 
ENDBRANCH   2  11
TORSDOF 1
