REMARK  Name = =
REMARK  3 active torsions:
REMARK  status: ('A' for Active; 'I' for Inactive)
REMARK    1  A    between atoms: C_1  and  C_8
REMARK    2  A    between atoms: C_1  and  O_17
REMARK    3  A    between atoms: O_17  and  C_18
REMARK                            x       y       z     vdW  Elec       q    Type
REMARK                         _______ _______ _______ _____ _____    ______ ____
ROOT
ATOM      1  C   UNL     1      53.652 155.185  25.293  0.00  0.00    +0.329 C 
ATOM      2  O   UNL     1      53.098 154.158  24.516  0.00  0.00    -0.410 OA
ATOM      3  C   UNL     1      54.137 153.482  23.917  0.00  0.00    +0.344 C 
ATOM      4  O   UNL     1      54.088 152.485  23.132  0.00  0.00    -0.245 OA
ATOM      5  C   UNL     1      55.385 154.105  24.332  0.00  0.00    +0.085 C 
ATOM      6  C   UNL     1      55.104 155.098  25.134  0.00  0.00    +0.067 C 
ENDROOT
BRANCH   1   8
ATOM      7  O   UNL     1      52.409 155.738  27.304  0.00  0.00    -0.472 OA
ATOM      8  C   UNL     1      53.344 154.852  26.735  0.00  0.00    +0.246 C 
ATOM      9  C   UNL     1      52.807 153.447  26.903  0.00  0.00    +0.056 C 
ATOM     10  C   UNL     1      52.929 153.123  28.398  0.00  0.00    +0.033 C 
ATOM     11  C   UNL     1      52.103 154.134  29.099  0.00  0.00    +0.012 C 
ATOM     12  C   UNL     1      51.876 155.370  28.547  0.00  0.00    +0.135 C 
ATOM     13  C   UNL     1      51.097 156.260  29.258  0.00  0.00    +0.037 C 
ATOM     14  C   UNL     1      50.539 155.968  30.486  0.00  0.00    +0.003 C 
ATOM     15  C   UNL     1      50.775 154.720  31.031  0.00  0.00    -0.000 C 
ATOM     16  C   UNL     1      51.559 153.815  30.324  0.00  0.00    -0.001 C 
ENDBRANCH   1   8
BRANCH   1  17
ATOM     17  O   UNL     1      53.136 156.456  24.951  0.00  0.00    -0.442 OA
BRANCH  17  18
ATOM     18  C   UNL     1      53.865 157.363  24.250  0.00  0.00    +0.146 C 
ATOM     19  C   UNL     1      55.242 157.384  24.257  0.00  0.00    +0.058 C 
ATOM     20  C   UNL     1      55.969 158.313  23.538  0.00  0.00    +0.102 C 
ATOM     21  N   UNL     1      55.322 159.237  22.798  0.00  0.00    -0.242 NA
ATOM     22  C   UNL     1      53.976 159.228  22.781  0.00  0.00    +0.102 C 
ATOM     23  C   UNL     1      53.225 158.313  23.489  0.00  0.00    +0.058 C 
ENDBRANCH  17  18
ENDBRANCH   1  17
TORSDOF 3
