REMARK  Name = =
REMARK  4 active torsions:
REMARK  status: ('A' for Active; 'I' for Inactive)
REMARK    1  A    between atoms: C_1  and  C_8
REMARK    2  A    between atoms: C_1  and  O_17
REMARK    3  A    between atoms: O_17  and  C_18
REMARK    4  A    between atoms: C_19  and  C_24
REMARK                            x       y       z     vdW  Elec       q    Type
REMARK                         _______ _______ _______ _____ _____    ______ ____
ROOT
ATOM      1  C   UNL     1      52.568 155.778  27.360  0.00  0.00    +0.329 C 
ATOM      2  O   UNL     1      51.531 156.716  27.541  0.00  0.00    -0.410 OA
ATOM      3  C   UNL     1      51.867 157.617  28.515  0.00  0.00    +0.344 C 
ATOM      4  O   UNL     1      51.190 158.593  28.955  0.00  0.00    -0.245 OA
ATOM      5  C   UNL     1      53.193 157.268  28.998  0.00  0.00    +0.085 C 
ATOM      6  C   UNL     1      53.594 156.210  28.327  0.00  0.00    +0.067 C 
ENDROOT
BRANCH   1   8
ATOM      7  O   UNL     1      52.446 153.363  27.076  0.00  0.00    -0.472 OA
ATOM      8  C   UNL     1      51.971 154.447  27.861  0.00  0.00    +0.246 C 
ATOM      9  C   UNL     1      52.267 154.203  29.302  0.00  0.00    +0.056 C 
ATOM     10  C   UNL     1      51.458 153.043  29.780  0.00  0.00    +0.033 C 
ATOM     11  C   UNL     1      51.530 151.944  28.783  0.00  0.00    +0.012 C 
ATOM     12  C   UNL     1      52.001 152.097  27.499  0.00  0.00    +0.135 C 
ATOM     13  C   UNL     1      52.019 151.005  26.670  0.00  0.00    +0.037 C 
ATOM     14  C   UNL     1      51.585 149.753  27.066  0.00  0.00    +0.003 C 
ATOM     15  C   UNL     1      51.113 149.586  28.350  0.00  0.00    -0.000 C 
ATOM     16  C   UNL     1      51.094 150.680  29.182  0.00  0.00    -0.001 C 
ENDBRANCH   1   8
BRANCH   1  17
ATOM     17  O   UNL     1      52.987 155.575  26.067  0.00  0.00    -0.442 OA
BRANCH  17  18
ATOM     18  C   UNL     1      53.915 156.182  25.285  0.00  0.00    +0.146 C 
ATOM     19  C   UNL     1      54.324 155.450  24.149  0.00  0.00    +0.058 C 
ATOM     20  C   UNL     1      55.263 156.046  23.343  0.00  0.00    +0.102 C 
ATOM     21  N   UNL     1      55.791 157.273  23.597  0.00  0.00    -0.242 NA
ATOM     22  C   UNL     1      55.383 157.940  24.683  0.00  0.00    +0.102 C 
ATOM     23  C   UNL     1      54.444 157.427  25.552  0.00  0.00    +0.058 C 
BRANCH  19  24
ATOM     24  C   UNL     1      53.755 154.137  23.877  0.00  0.00    +0.065 C 
ATOM     25  C   UNL     1      54.514 153.158  23.426  0.00  0.00    +0.279 C 
ATOM     26  F   UNL     1      53.995 151.922  23.168  0.00  0.00    -0.172 F 
ATOM     27  F   UNL     1      55.847 153.378  23.218  0.00  0.00    -0.172 F 
ENDBRANCH  19  24
ENDBRANCH  17  18
ENDBRANCH   1  17
TORSDOF 4
