REMARK  Name = =
REMARK  5 active torsions:
REMARK  status: ('A' for Active; 'I' for Inactive)
REMARK    1  A    between atoms: C_1  and  C_8
REMARK    2  A    between atoms: C_1  and  O_17
REMARK    3  A    between atoms: O_17  and  C_18
REMARK    4  A    between atoms: C_19  and  C_24
REMARK    5  A    between atoms: C_24  and  S_28
REMARK                            x       y       z     vdW  Elec       q    Type
REMARK                         _______ _______ _______ _____ _____    ______ ____
ROOT
ATOM      1  C   UNL     1      53.202 155.040  27.080  0.00  0.00    +0.329 C 
ATOM      2  O   UNL     1      52.377 155.381  25.973  0.00  0.00    -0.410 OA
ATOM      3  C   UNL     1      51.532 154.339  25.640  0.00  0.00    +0.344 C 
ATOM      4  O   UNL     1      50.670 154.293  24.707  0.00  0.00    -0.245 OA
ATOM      5  C   UNL     1      51.799 153.256  26.567  0.00  0.00    +0.085 C 
ATOM      6  C   UNL     1      52.748 153.670  27.379  0.00  0.00    +0.067 C 
ENDROOT
BRANCH   1   8
ATOM      7  O   UNL     1      51.474 155.678  28.578  0.00  0.00    -0.472 OA
ATOM      8  C   UNL     1      52.848 155.891  28.267  0.00  0.00    +0.246 C 
ATOM      9  C   UNL     1      53.048 157.343  27.880  0.00  0.00    +0.056 C 
ATOM     10  C   UNL     1      52.655 158.275  28.987  0.00  0.00    +0.033 C 
ATOM     11  C   UNL     1      51.344 157.878  29.536  0.00  0.00    +0.012 C 
ATOM     12  C   UNL     1      50.804 156.637  29.330  0.00  0.00    +0.135 C 
ATOM     13  C   UNL     1      49.556 156.311  29.879  0.00  0.00    +0.037 C 
ATOM     14  C   UNL     1      48.838 157.210  30.632  0.00  0.00    +0.003 C 
ATOM     15  C   UNL     1      49.396 158.465  30.833  0.00  0.00    -0.000 C 
ATOM     16  C   UNL     1      50.621 158.785  30.294  0.00  0.00    -0.001 C 
ENDBRANCH   1   8
BRANCH   1  17
ATOM     17  O   UNL     1      54.574 155.135  26.720  0.00  0.00    -0.442 OA
BRANCH  17  18
ATOM     18  C   UNL     1      54.875 155.549  25.437  0.00  0.00    +0.147 C 
ATOM     19  C   UNL     1      54.985 154.657  24.423  0.00  0.00    +0.075 C 
ATOM     20  C   UNL     1      55.282 155.105  23.131  0.00  0.00    +0.103 C 
ATOM     21  N   UNL     1      55.462 156.414  22.879  0.00  0.00    -0.242 NA
ATOM     22  C   UNL     1      55.357 157.310  23.878  0.00  0.00    +0.102 C 
ATOM     23  C   UNL     1      55.063 156.923  25.174  0.00  0.00    +0.058 C 
BRANCH  19  24
ATOM     24  C   UNL     1      54.846 153.235  24.667  0.00  0.00    +0.162 C 
ATOM     25  C   UNL     1      53.990 152.470  24.021  0.00  0.00    +0.295 C 
ATOM     26  F   UNL     1      53.164 152.960  23.069  0.00  0.00    -0.171 F 
ATOM     27  F   UNL     1      53.925 151.159  24.312  0.00  0.00    -0.171 F 
BRANCH  24  28
ATOM     28  S   UNL     1      55.891 152.504  25.860  0.00  0.00    -0.007 S 
ATOM     29  O   UNL     1      55.943 151.008  25.601  0.00  0.00    -0.172 OA
ATOM     30  O   UNL     1      57.315 152.998  25.705  0.00  0.00    -0.172 OA
ATOM     31  H   UNL     1      55.407 152.814  27.093  0.00  0.00    +0.215 HD
ENDBRANCH  24  28
ENDBRANCH  19  24
ENDBRANCH  17  18
ENDBRANCH   1  17
TORSDOF 5
