MODEL 1
REMARK VINA RESULT:    -7.075      0.000      0.000
REMARK INTER + INTRA:          -9.450
REMARK INTER:                  -9.350
REMARK INTRA:                  -0.100
REMARK UNBOUND:                -0.100
REMARK  Name = =
REMARK  6 active torsions:
REMARK  status: ('A' for Active; 'I' for Inactive)
REMARK    1  A    between atoms: C_1  and  C_7
REMARK    2  A    between atoms: C_2  and  O_26
REMARK    3  A    between atoms: C_7  and  N_20
REMARK    4  A    between atoms: O_26  and  C_27
REMARK    5  A    between atoms: C_27  and  C_32
REMARK    6  A    between atoms: C_33  and  O_44
REMARK                            x       y       z     vdW  Elec       q    Type
REMARK                         _______ _______ _______ _____ _____    ______ ____
ROOT
ATOM      1  C   UNL     1      59.629 163.205  37.408  0.00  0.00    +0.032 C 
ATOM      2  C   UNL     1      59.555 164.289  36.562  0.00  0.00    +0.136 C 
ATOM      3  C   UNL     1      59.078 164.130  35.242  0.00  0.00    +0.037 C 
ATOM      4  C   UNL     1      58.685 162.900  34.805  0.00  0.00    +0.003 C 
ATOM      5  C   UNL     1      58.753 161.809  35.645  0.00  0.00    -0.000 C 
ATOM      6  C   UNL     1      59.213 161.940  36.926  0.00  0.00    +0.001 C 
ENDROOT
BRANCH   1   7
ATOM      7  C   UNL     1      60.170 163.287  38.767  0.00  0.00    +0.106 C 
ATOM      8  C   UNL     1      61.666 163.394  38.810  0.00  0.00    -0.002 C 
ATOM      9  C   UNL     1      62.029 164.280  39.791  0.00  0.00    -0.002 C 
ATOM     10  C   UNL     1      60.832 164.871  40.346  0.00  0.00    -0.002 C 
ATOM     11  C   UNL     1      59.728 164.330  39.687  0.00  0.00    -0.002 C 
ATOM     12  C   UNL     1      58.460 164.792  40.037  0.00  0.00    -0.002 C 
ATOM     13  C   UNL     1      58.329 165.756  41.014  0.00  0.00    -0.000 C 
ATOM     14  C   UNL     1      59.439 166.280  41.661  0.00  0.00    -0.000 C 
ATOM     15  C   UNL     1      60.698 165.836  41.327  0.00  0.00    -0.000 C 
ATOM     16  C   UNL     1      63.374 164.541  40.060  0.00  0.00    -0.000 C 
ATOM     17  C   UNL     1      64.363 163.915  39.346  0.00  0.00    -0.000 C 
ATOM     18  C   UNL     1      64.013 163.028  38.360  0.00  0.00    -0.000 C 
ATOM     19  C   UNL     1      62.682 162.789  38.115  0.00  0.00    -0.002 C 
BRANCH   7  20
ATOM     20  N   UNL     1      59.896 162.063  39.508  0.00  0.00    -0.265 NA
ATOM     21  C   UNL     1      60.889 161.235  39.959  0.00  0.00    +0.073 C 
ATOM     22  C   UNL     1      60.981 161.402  41.492  0.00  0.00    +0.017 C 
ATOM     23  C   UNL     1      59.658 160.889  42.035  0.00  0.00    +0.003 C 
ATOM     24  C   UNL     1      58.577 160.798  41.014  0.00  0.00    +0.017 C 
ATOM     25  C   UNL     1      58.587 161.907  39.984  0.00  0.00    +0.073 C 
ENDBRANCH   7  20
ENDBRANCH   1   7
BRANCH   2  26
ATOM     26  O   UNL     1      59.907 165.566  36.897  0.00  0.00    -0.479 OA
BRANCH  26  27
ATOM     27  C   UNL     1      60.445 166.582  36.134  0.00  0.00    +0.158 C 
ATOM     28  C   UNL     1      60.268 167.924  36.895  0.00  0.00    +0.045 C 
ATOM     29  C   UNL     1      60.927 168.871  35.917  0.00  0.00    +0.004 C 
ATOM     30  C   UNL     1      60.520 168.330  34.541  0.00  0.00    +0.004 C 
ATOM     31  C   UNL     1      59.787 167.063  34.902  0.00  0.00    +0.045 C 
BRANCH  27  32
ATOM     32  C   UNL     1      61.927 166.405  35.958  0.00  0.00    +0.089 C 
ATOM     33  C   UNL     1      62.804 166.703  36.903  0.00  0.00    +0.175 C 
ATOM     34  C   UNL     1      64.260 166.534  36.733  0.00  0.00    +0.229 C 
ATOM     35  O   UNL     1      65.060 166.826  37.660  0.00  0.00    -0.283 OA
ATOM     36  C   UNL     1      64.819 166.027  35.497  0.00  0.00    +0.045 C 
ATOM     37  C   UNL     1      63.912 165.717  34.499  0.00  0.00    +0.042 C 
ATOM     38  C   UNL     1      64.437 165.234  33.314  0.00  0.00    +0.003 C 
ATOM     39  C   UNL     1      65.793 165.065  33.127  0.00  0.00    +0.000 C 
ATOM     40  C   UNL     1      66.684 165.378  34.129  0.00  0.00    +0.000 C 
ATOM     41  C   UNL     1      66.177 165.859  35.309  0.00  0.00    +0.003 C 
ATOM     42  C   UNL     1      62.454 165.896  34.701  0.00  0.00    +0.198 C 
ATOM     43  O   UNL     1      61.773 165.575  33.702  0.00  0.00    -0.287 OA
BRANCH  33  44
ATOM     44  O   UNL     1      62.382 167.211  38.126  0.00  0.00    -0.503 OA
ATOM     45  H   UNL     1      61.972 166.646  38.751  0.00  0.00    +0.292 HD
ENDBRANCH  33  44
ENDBRANCH  27  32
ENDBRANCH  26  27
ENDBRANCH   2  26
TORSDOF 6
ENDMDL
