MODEL 1
REMARK VINA RESULT:    -5.654      0.000      0.000
REMARK INTER + INTRA:          -6.616
REMARK INTER:                  -6.315
REMARK INTRA:                  -0.301
REMARK UNBOUND:                -0.301
REMARK  Name = =
REMARK  2 active torsions:
REMARK  status: ('A' for Active; 'I' for Inactive)
REMARK    1  A    between atoms: C_1  and  C_9
REMARK    2  A    between atoms: C_1  and  C_19
REMARK                            x       y       z     vdW  Elec       q    Type
REMARK                         _______ _______ _______ _____ _____    ______ ____
ROOT
ATOM      1  C   UNL     1      61.183 161.127  40.627  0.00  0.00    +0.121 C 
ATOM      2  C   UNL     1      61.791 161.840  41.735  0.00  0.00    +0.236 C 
ATOM      3  O   UNL     1      61.565 163.052  42.093  0.00  0.00    -0.274 OA
ATOM      4  N   UNL     1      62.781 161.198  42.595  0.00  0.00    -0.255 N 
ATOM      5  C   UNL     1      63.800 160.446  41.914  0.00  0.00    +0.228 C 
ATOM      6  O   UNL     1      64.648 159.786  42.525  0.00  0.00    -0.275 OA
ATOM      7  C   UNL     1      63.661 160.588  40.438  0.00  0.00    +0.087 C 
ATOM      8  C   UNL     1      62.278 160.133  40.136  0.00  0.00    +0.028 C 
ATOM      9  H   UNL     1      62.753 161.275  43.576  0.00  0.00    +0.158 HD
ENDROOT
BRANCH   1  10
ATOM     10  C   UNL     1      60.060 160.220  40.965  0.00  0.00    +0.070 C 
ATOM     11  C   UNL     1      58.748 160.646  41.187  0.00  0.00    +0.017 C 
ATOM     12  C   UNL     1      57.723 159.747  41.475  0.00  0.00    +0.022 C 
ATOM     13  C   UNL     1      57.984 158.383  41.552  0.00  0.00    +0.022 C 
ATOM     14  C   UNL     1      59.264 157.995  41.334  0.00  0.00    +0.099 C 
ATOM     15  N   UNL     1      60.213 158.865  41.064  0.00  0.00    -0.247 NA
ATOM     16  C   UNL     1      56.444 160.232  41.696  0.00  0.00    +0.099 C 
ATOM     17  N   UNL     1      56.201 161.553  41.632  0.00  0.00    -0.242 NA
ATOM     18  C   UNL     1      57.175 162.432  41.357  0.00  0.00    +0.099 C 
ATOM     19  C   UNL     1      58.473 161.975  41.130  0.00  0.00    +0.022 C 
ENDBRANCH   1  10
BRANCH   1  20
ATOM     20  C   UNL     1      60.997 161.887  39.362  0.00  0.00    -0.018 C 
ATOM     21  C   UNL     1      60.584 161.203  38.300  0.00  0.00    -0.031 C 
ATOM     22  C   UNL     1      60.397 161.968  37.034  0.00  0.00    +0.044 C 
ATOM     23  C   UNL     1      59.687 163.237  37.384  0.00  0.00    +0.094 C 
ATOM     24  N   UNL     1      60.345 164.027  38.364  0.00  0.00    -0.213 NA
ATOM     25  C   UNL     1      61.300 163.308  39.193  0.00  0.00    +0.111 C 
ENDBRANCH   1  20
TORSDOF 2
ENDMDL
