REMARK  Name = =
REMARK  14 active torsions:
REMARK  status: ('A' for Active; 'I' for Inactive)
REMARK    1  A    between atoms: N_1  and  S_11
REMARK    2  A    between atoms: N_1  and  C_17
REMARK    3  A    between atoms: N_1  and  S_29
REMARK    4  A    between atoms: C_3  and  O_32
REMARK    5  A    between atoms: C_4  and  N_24
REMARK    6  A    between atoms: C_5  and  C_6
REMARK    7  A    between atoms: C_5  and  C_25
REMARK    8  A    between atoms: C_6  and  C_7
REMARK    9  A    between atoms: C_7  and  C_28
REMARK   10  A    between atoms: C_7  and  S_29
REMARK   11  A    between atoms: S_11  and  O_12
REMARK   12  A    between atoms: S_11  and  N_14
REMARK   13  A    between atoms: O_12  and  O_33
REMARK   14  A    between atoms: C_28  and  N_30
REMARK                            x       y       z     vdW  Elec       q    Type
REMARK                         _______ _______ _______ _____ _____    ______ ____
ROOT
ATOM      1  C   UNL     1      49.883 158.560  30.764  0.00  0.00    +0.014 C 
ATOM      2  C   UNL     1      48.950 157.534  30.568  0.00  0.00    +0.076 C 
ENDROOT
BRANCH   2   3
ATOM      3  C   UNL     1      49.255 156.404  29.870  0.00  0.00    +0.064 C 
BRANCH   3   4
ATOM      4  C   UNL     1      50.511 156.261  29.344  0.00  0.00    +0.205 C 
ATOM      5  O   UNL     1      51.103 155.241  28.607  0.00  0.00    -0.309 OA
ATOM      6  C   UNL     1      52.509 155.414  28.599  0.00  0.00    +0.314 C 
ATOM      7  O   UNL     1      52.621 156.807  28.868  0.00  0.00    -0.246 OA
ATOM      8  N   UNL     1      51.178 156.595  29.461  0.00  0.00    -0.123 NA
BRANCH   8  10
ATOM      9  C   UNL     1      51.151 158.404  30.226  0.00  0.00    +0.221 C 
ATOM     10  C   UNL     1      51.460 157.256  29.519  0.00  0.00    +0.176 C 
ATOM     11  S   UNL     1      50.419 158.030  29.189  0.00  0.00    -0.142 S 
ATOM     12  N   UNL     1      51.244 159.260  29.887  0.00  0.00    -0.092 NA
ATOM     13  H   UNL     1      49.154 157.574  29.391  0.00  0.00    +0.097 HD
BRANCH   9  14
ATOM     14  O   UNL     1      51.328 159.125  31.245  0.00  0.00    -0.362 OA
ATOM     15  H   UNL     1      52.180 158.905  31.653  0.00  0.00    +0.213 HD
ENDBRANCH   9  14
ENDBRANCH   8  10
BRANCH   4  16
ATOM     16  C   UNL     1      50.753 155.688  30.441  0.00  0.00    +0.140 C 
ATOM     17  N   UNL     1      50.417 154.927  31.250  0.00  0.00    -0.147 NA
ENDBRANCH   4  16
ENDBRANCH   3   4
ENDBRANCH   2   3
BRANCH   2  18
ATOM     18  C   UNL     1      48.875 157.927  30.014  0.00  0.00    +0.077 C 
BRANCH  18  19
ATOM     19  N   UNL     1      47.859 157.137  29.439  0.00  0.00    -0.320 NA
ATOM     20  H   UNL     1      47.569 157.549  28.552  0.00  0.00    +0.119 HD
ATOM     21  H   UNL     1      47.061 157.096  30.072  0.00  0.00    +0.119 HD
ENDBRANCH  18  19
ENDBRANCH   2  18
BRANCH   2  22
ATOM     22  S   UNL     1      48.590 158.705  31.405  0.00  0.00    -0.034 S 
BRANCH  22  23
ATOM     23  N   UNL     1      49.521 159.696  31.524  0.00  0.00    -0.173 N 
BRANCH  23  24
ATOM     24  S   UNL     1      49.745 161.273  30.913  0.00  0.00    +0.208 S 
ATOM     25  O   UNL     1      48.488 162.107  31.163  0.00  0.00    -0.104 OA
BRANCH  24  26
ATOM     26  N   UNL     1      51.115 162.059  31.607  0.00  0.00    -0.209 N 
ATOM     27  C   UNL     1      52.401 161.745  31.140  0.00  0.00    +0.312 C 
ATOM     28  O   UNL     1      52.519 160.888  30.216  0.00  0.00    -0.264 OA
ATOM     29  H   UNL     1      50.996 162.722  32.325  0.00  0.00    +0.167 HD
ENDBRANCH  24  26
BRANCH  24  30
ATOM     30  O   UNL     1      49.886 161.286  29.394  0.00  0.00    -0.122 OA
BRANCH  30  31
ATOM     31  O   UNL     1      50.694 160.484  29.630  0.00  0.00    -0.235 OA
ATOM     32  H   UNL     1      51.096 160.177  28.802  0.00  0.00    +0.254 HD
ENDBRANCH  30  31
ENDBRANCH  24  30
ENDBRANCH  23  24
BRANCH  23  33
ATOM     33  C   UNL     1      48.972 159.464  32.806  0.00  0.00    +0.087 C 
ATOM     34  C   UNL     1      49.438 159.976  33.914  0.00  0.00    +0.019 C 
ENDBRANCH  23  33
ENDBRANCH  22  23
ENDBRANCH   2  22
TORSDOF 14
REMARK  Name = =
REMARK  14 active torsions:
REMARK  status: ('A' for Active; 'I' for Inactive)
REMARK    1  A    between atoms: N_1  and  S_11
REMARK    2  A    between atoms: N_1  and  C_17
REMARK    3  A    between atoms: N_1  and  S_29
REMARK    4  A    between atoms: C_3  and  O_32
REMARK    5  A    between atoms: C_4  and  N_24
REMARK    6  A    between atoms: C_5  and  C_6
REMARK    7  A    between atoms: C_5  and  C_25
REMARK    8  A    between atoms: C_6  and  C_7
REMARK    9  A    between atoms: C_7  and  C_28
REMARK   10  A    between atoms: C_7  and  S_29
REMARK   11  A    between atoms: S_11  and  O_12
REMARK   12  A    between atoms: S_11  and  N_14
REMARK   13  A    between atoms: O_12  and  O_33
REMARK   14  A    between atoms: C_28  and  N_30
REMARK                            x       y       z     vdW  Elec       q    Type
REMARK                         _______ _______ _______ _____ _____    ______ ____
ROOT
ATOM      1  N   UNL     1      52.438 156.042  24.528  0.00  0.00    -0.130 NA
ATOM      2  C   UNL     1      53.865 156.051  24.848  0.00  0.00    +0.130 C 
ENDROOT
TORSDOF 0
REMARK  Name = =
REMARK  14 active torsions:
REMARK  status: ('A' for Active; 'I' for Inactive)
REMARK    1  A    between atoms: N_1  and  S_11
REMARK    2  A    between atoms: N_1  and  C_17
REMARK    3  A    between atoms: N_1  and  S_29
REMARK    4  A    between atoms: C_3  and  O_32
REMARK    5  A    between atoms: C_4  and  N_24
REMARK    6  A    between atoms: C_5  and  C_6
REMARK    7  A    between atoms: C_5  and  C_25
REMARK    8  A    between atoms: C_6  and  C_7
REMARK    9  A    between atoms: C_7  and  C_28
REMARK   10  A    between atoms: C_7  and  S_29
REMARK   11  A    between atoms: S_11  and  O_12
REMARK   12  A    between atoms: S_11  and  N_14
REMARK   13  A    between atoms: O_12  and  O_33
REMARK   14  A    between atoms: C_28  and  N_30
REMARK                            x       y       z     vdW  Elec       q    Type
REMARK                         _______ _______ _______ _____ _____    ______ ____
ROOT
ATOM      1  N   UNL     1      50.898 152.781  27.642  0.00  0.00    -0.180 NA
ATOM      2  C   UNL     1      50.954 151.771  28.376  0.00  0.00    +0.180 C 
ENDROOT
TORSDOF 0
REMARK  Name = =
REMARK  14 active torsions:
REMARK  status: ('A' for Active; 'I' for Inactive)
REMARK    1  A    between atoms: N_1  and  S_11
REMARK    2  A    between atoms: N_1  and  C_17
REMARK    3  A    between atoms: N_1  and  S_29
REMARK    4  A    between atoms: C_3  and  O_32
REMARK    5  A    between atoms: C_4  and  N_24
REMARK    6  A    between atoms: C_5  and  C_6
REMARK    7  A    between atoms: C_5  and  C_25
REMARK    8  A    between atoms: C_6  and  C_7
REMARK    9  A    between atoms: C_7  and  C_28
REMARK   10  A    between atoms: C_7  and  S_29
REMARK   11  A    between atoms: S_11  and  O_12
REMARK   12  A    between atoms: S_11  and  N_14
REMARK   13  A    between atoms: O_12  and  O_33
REMARK   14  A    between atoms: C_28  and  N_30
REMARK                            x       y       z     vdW  Elec       q    Type
REMARK                         _______ _______ _______ _____ _____    ______ ____
ROOT
ATOM      1  O   HOH     1      52.841 158.500  28.173  0.00  0.00    -0.253 OA
ATOM      2  H   HOH     0      53.811 158.500  28.173  0.00  0.00    +0.253 HD
ENDROOT
TORSDOF 0
