REMARK  Name = =
REMARK  0 active torsions:
REMARK  status: ('A' for Active; 'I' for Inactive)
REMARK                            x       y       z     vdW  Elec       q    Type
REMARK                         _______ _______ _______ _____ _____    ______ ____
ROOT
ATOM      1  C   UNL     1      -2.993  -3.848  30.871  0.00  0.00    +0.122 C 
ATOM      2  N   UNL     1      -2.238  -4.902  30.513  0.00  0.00    -0.146 NA
ATOM      3  N   UNL     1      -2.411  -6.117  30.994  0.00  0.00    -0.146 NA
ATOM      4  C   UNL     1      -3.371  -6.405  31.894  0.00  0.00    +0.122 C 
ATOM      5  C   UNL     1      -4.179  -5.358  32.300  0.00  0.00    +0.024 C 
ATOM      6  C   UNL     1      -4.000  -4.086  31.799  0.00  0.00    +0.024 C 
ENDROOT
TORSDOF 0
