REMARK  Name = =
REMARK  1 active torsions:
REMARK  status: ('A' for Active; 'I' for Inactive)
REMARK    1  A    between atoms: C_1  and  C_7
REMARK                            x       y       z     vdW  Elec       q    Type
REMARK                         _______ _______ _______ _____ _____    ______ ____
ROOT
ATOM      1  C   UNL     1      -3.445  -5.971  32.329  0.00  0.00    +0.121 C 
ATOM      2  N   UNL     1      -2.419  -6.027  31.463  0.00  0.00    -0.146 NA
ATOM      3  N   UNL     1      -1.684  -7.118  31.292  0.00  0.00    -0.146 NA
ATOM      4  C   UNL     1      -1.904  -8.253  31.967  0.00  0.00    +0.122 C 
ATOM      5  C   UNL     1      -2.946  -8.247  32.869  0.00  0.00    +0.024 C 
ATOM      6  C   UNL     1      -3.720  -7.121  33.059  0.00  0.00    +0.024 C 
ENDROOT
BRANCH   1   7
ATOM      7  C   UNL     1      -4.234  -4.756  32.493  0.00  0.00    +0.110 C 
ATOM      8  N   UNL     1      -3.822  -3.843  33.268  0.00  0.00    -0.295 NA
ATOM      9  H   UNL     1      -4.350  -3.020  33.383  0.00  0.00    +0.187 HD
ENDBRANCH   1   7
TORSDOF 1
