REMARK  Name = =
REMARK  2 active torsions:
REMARK  status: ('A' for Active; 'I' for Inactive)
REMARK    1  A    between atoms: C_1  and  C_27
REMARK    2  A    between atoms: C_4  and  N_5
REMARK                            x       y       z     vdW  Elec       q    Type
REMARK                         _______ _______ _______ _____ _____    ______ ____
ROOT
ATOM      1  N   UNL     1      -1.953  -8.048  30.681  0.00  0.00    -0.271 N 
ATOM      2  C   UNL     1      -0.889  -7.296  30.064  0.00  0.00    +0.052 C 
ATOM      3  C   UNL     1      -1.294  -6.382  29.009  0.00  0.00    +0.015 C 
ATOM      4  C   UNL     1      -0.735  -5.022  29.083  0.00  0.00    +0.001 C 
ATOM      5  C   UNL     1       0.207  -4.634  30.021  0.00  0.00    +0.003 C 
ATOM      6  C   UNL     1       0.653  -5.616  31.019  0.00  0.00    +0.038 C 
ATOM      7  C   UNL     1       0.143  -6.879  31.015  0.00  0.00    +0.013 C 
ATOM      8  C   UNL     1       0.590  -7.828  31.963  0.00  0.00    -0.016 C 
ATOM      9  C   UNL     1       1.523  -7.460  32.862  0.00  0.00    +0.036 C 
ATOM     10  C   UNL     1       2.033  -6.163  32.851  0.00  0.00    +0.176 C 
ATOM     11  C   UNL     1       1.622  -5.212  31.944  0.00  0.00    +0.176 C 
ATOM     12  O   UNL     1       2.337  -4.071  32.237  0.00  0.00    -0.435 OA
ATOM     13  C   UNL     1       2.841  -4.220  33.546  0.00  0.00    +0.429 C 
ATOM     14  O   UNL     1       2.995  -5.632  33.710  0.00  0.00    -0.435 OA
ATOM     15  C   UNL     1      -0.049  -9.155  31.830  0.00  0.00    +0.048 C 
ATOM     16  C   UNL     1      -1.528  -8.972  31.670  0.00  0.00    +0.102 C 
ATOM     17  C   UNL     1       0.684  -3.336  30.000  0.00  0.00    +0.000 C 
ATOM     18  C   UNL     1       0.217  -2.432  29.044  0.00  0.00    +0.000 C 
ATOM     19  C   UNL     1      -0.715  -2.801  28.110  0.00  0.00    +0.000 C 
ATOM     20  C   UNL     1      -1.181  -4.090  28.138  0.00  0.00    +0.000 C 
ENDROOT
BRANCH   1  24
ATOM     21  C   UNL     1      -4.542  -5.298  32.516  0.00  0.00    +0.121 C 
ATOM     22  N   UNL     1      -3.398  -4.899  31.905  0.00  0.00    -0.145 NA
ATOM     23  N   UNL     1      -2.594  -5.776  31.332  0.00  0.00    -0.133 NA
ATOM     24  C   UNL     1      -2.828  -7.098  31.304  0.00  0.00    +0.157 C 
ATOM     25  C   UNL     1      -3.996  -7.513  31.927  0.00  0.00    +0.038 C 
ATOM     26  C   UNL     1      -4.866  -6.640  32.538  0.00  0.00    +0.025 C 
BRANCH  21  27
ATOM     27  C   UNL     1      -5.441  -4.358  33.151  0.00  0.00    +0.110 C 
ATOM     28  N   UNL     1      -5.138  -3.109  33.164  0.00  0.00    -0.295 NA
ATOM     29  H   UNL     1      -5.742  -2.460  33.593  0.00  0.00    +0.187 HD
ENDBRANCH  21  27
ENDBRANCH   1  24
TORSDOF 2
