REMARK  Name = =
REMARK  3 active torsions:
REMARK  status: ('A' for Active; 'I' for Inactive)
REMARK    1  A    between atoms: C_1  and  C_37
REMARK    2  A    between atoms: C_4  and  N_5
REMARK    3  A    between atoms: C_26  and  C_27
REMARK                            x       y       z     vdW  Elec       q    Type
REMARK                         _______ _______ _______ _____ _____    ______ ____
ROOT
ATOM      1  N   UNL     1       2.053  -7.636  27.222  0.00  0.00    -0.271 N 
ATOM      2  C   UNL     1       2.887  -7.306  26.124  0.00  0.00    +0.052 C 
ATOM      3  C   UNL     1       2.212  -6.803  24.911  0.00  0.00    +0.015 C 
ATOM      4  C   UNL     1       2.493  -7.501  23.659  0.00  0.00    +0.001 C 
ATOM      5  C   UNL     1       3.296  -8.607  23.494  0.00  0.00    +0.003 C 
ATOM      6  C   UNL     1       3.970  -9.118  24.692  0.00  0.00    +0.038 C 
ATOM      7  C   UNL     1       3.767  -8.477  25.879  0.00  0.00    +0.013 C 
ATOM      8  C   UNL     1       4.425  -8.962  26.999  0.00  0.00    -0.016 C 
ATOM      9  C   UNL     1       5.274 -10.072  26.946  0.00  0.00    +0.036 C 
ATOM     10  C   UNL     1       5.466 -10.706  25.744  0.00  0.00    +0.176 C 
ATOM     11  C   UNL     1       4.816 -10.233  24.616  0.00  0.00    +0.176 C 
ATOM     12  O   UNL     1       5.223 -11.080  23.608  0.00  0.00    -0.435 OA
ATOM     13  C   UNL     1       5.698 -12.321  24.162  0.00  0.00    +0.429 C 
ATOM     14  O   UNL     1       6.239 -11.815  25.394  0.00  0.00    -0.435 OA
ATOM     15  C   UNL     1       4.211  -8.243  28.278  0.00  0.00    +0.048 C 
ATOM     16  C   UNL     1       2.801  -7.817  28.457  0.00  0.00    +0.102 C 
ATOM     17  C   UNL     1       3.494  -9.210  22.294  0.00  0.00    +0.000 C 
ATOM     18  C   UNL     1       2.852  -8.681  21.163  0.00  0.00    +0.000 C 
ATOM     19  C   UNL     1       2.043  -7.576  21.287  0.00  0.00    +0.000 C 
ATOM     20  C   UNL     1       1.867  -6.996  22.517  0.00  0.00    +0.000 C 
ENDROOT
BRANCH   1  24
ATOM     21  C   UNL     1      -1.236  -5.357  28.330  0.00  0.00    +0.123 C 
ATOM     22  N   UNL     1      -0.352  -4.876  27.403  0.00  0.00    -0.145 NA
ATOM     23  N   UNL     1       0.704  -5.588  27.038  0.00  0.00    -0.133 NA
ATOM     24  C   UNL     1       0.982  -6.784  27.523  0.00  0.00    +0.157 C 
ATOM     25  C   UNL     1       0.084  -7.299  28.480  0.00  0.00    +0.040 C 
ATOM     26  C   UNL     1      -1.027  -6.595  28.889  0.00  0.00    +0.043 C 
BRANCH  26  27
ATOM     27  C   UNL     1      -1.952  -7.149  29.863  0.00  0.00    +0.100 C 
ATOM     28  C   UNL     1      -2.542  -6.376  30.848  0.00  0.00    +0.099 C 
ATOM     29  C   UNL     1      -3.415  -6.857  31.797  0.00  0.00    +0.021 C 
ATOM     30  C   UNL     1      -3.715  -8.209  31.751  0.00  0.00    +0.022 C 
ATOM     31  C   UNL     1      -3.128  -8.991  30.768  0.00  0.00    +0.099 C 
ATOM     32  N   UNL     1      -2.282  -8.463  29.866  0.00  0.00    -0.242 NA
ATOM     33  C   UNL     1      -3.988  -6.057  32.768  0.00  0.00    +0.003 C 
ATOM     34  C   UNL     1      -3.626  -4.704  32.732  0.00  0.00    +0.021 C 
ATOM     35  C   UNL     1      -2.745  -4.216  31.775  0.00  0.00    +0.099 C 
ATOM     36  N   UNL     1      -2.226  -5.051  30.861  0.00  0.00    -0.242 NA
ENDBRANCH  26  27
BRANCH  21  37
ATOM     37  C   UNL     1      -2.379  -4.572  28.728  0.00  0.00    +0.110 C 
ATOM     38  N   UNL     1      -2.539  -3.389  28.268  0.00  0.00    -0.295 NA
ATOM     39  H   UNL     1      -3.320  -2.856  28.542  0.00  0.00    +0.187 HD
ENDBRANCH  21  37
ENDBRANCH   1  24
TORSDOF 3
