REMARK  Name = =
REMARK  7 active torsions:
REMARK  status: ('A' for Active; 'I' for Inactive)
REMARK    1  A    between atoms: C_1  and  C_26
REMARK    2  A    between atoms: C_2  and  N_20
REMARK    3  A    between atoms: C_5  and  C_7
REMARK    4  A    between atoms: C_13  and  N_17
REMARK    5  A    between atoms: N_18  and  N_19
REMARK    6  A    between atoms: C_26  and  O_28
REMARK    7  A    between atoms: O_28  and  C_29
REMARK                            x       y       z     vdW  Elec       q    Type
REMARK                         _______ _______ _______ _____ _____    ______ ____
ROOT
ATOM      1  C   UNL     1     -12.546  -5.166  24.162  0.00  0.00    +0.089 C 
ATOM      2  C   UNL     1     -12.674  -4.182  23.229  0.00  0.00    +0.055 C 
ATOM      3  C   UNL     1     -13.723  -4.296  22.298  0.00  0.00    +0.015 C 
ATOM      4  C   UNL     1     -14.611  -5.336  22.289  0.00  0.00    +0.003 C 
ATOM      5  C   UNL     1     -14.482  -6.323  23.228  0.00  0.00    +0.020 C 
ATOM      6  C   UNL     1     -13.468  -6.237  24.146  0.00  0.00    +0.009 C 
ENDROOT
BRANCH   5   7
ATOM      7  C   UNL     1     -15.378  -7.466  23.335  0.00  0.00    +0.104 C 
ATOM      8  N   UNL     1     -15.012  -8.634  22.725  0.00  0.00    -0.148 NA
ATOM      9  N   UNL     1     -15.773  -9.706  22.776  0.00  0.00    -0.146 NA
ATOM     10  C   UNL     1     -16.935  -9.739  23.412  0.00  0.00    +0.122 C 
ATOM     11  C   UNL     1     -17.346  -8.566  24.053  0.00  0.00    +0.024 C 
ATOM     12  C   UNL     1     -16.555  -7.420  24.013  0.00  0.00    +0.040 C 
ATOM     13  C   UNL     1     -16.971  -6.295  24.678  0.00  0.00    +0.106 C 
ATOM     14  C   UNL     1     -18.177  -6.330  25.371  0.00  0.00    +0.021 C 
ATOM     15  C   UNL     1     -18.962  -7.455  25.410  0.00  0.00    +0.002 C 
ATOM     16  C   UNL     1     -18.523  -8.574  24.738  0.00  0.00    +0.002 C 
BRANCH  13  17
ATOM     17  N   UNL     1     -16.172  -5.102  24.731  0.00  0.00    -0.133 NA
ATOM     18  N   UNL     1     -16.749  -3.976  24.821  0.00  0.00    -0.084 NA
BRANCH  18  19
ATOM     19  N   UNL     1     -16.030  -2.770  24.877  0.00  0.00    -0.264 N 
ATOM     20  H   UNL     1     -16.510  -1.913  24.947  0.00  0.00    +0.166 HD
ATOM     21  H   UNL     1     -15.046  -2.782  24.847  0.00  0.00    +0.166 HD
ENDBRANCH  18  19
ENDBRANCH  13  17
ENDBRANCH   5   7
BRANCH   2  22
ATOM     22  N   UNL     1     -11.830  -3.052  23.181  0.00  0.00    -0.294 N 
ATOM     23  C   UNL     1     -12.166  -1.867  23.976  0.00  0.00    +0.165 C 
ATOM     24  N   UNL     1     -12.413  -0.792  22.970  0.00  0.00    -0.280 NA
ATOM     25  C   UNL     1     -11.080  -0.540  22.407  0.00  0.00    +0.072 C 
ATOM     26  C   UNL     1     -10.750  -1.682  21.476  0.00  0.00    +0.039 C 
ATOM     27  C   UNL     1     -10.632  -2.939  22.362  0.00  0.00    +0.093 C 
ATOM     28  H   UNL     1     -12.785   0.046  23.416  0.00  0.00    +0.125 HD
ENDBRANCH   2  22
BRANCH   1  29
ATOM     29  C   UNL     1     -11.476  -5.152  25.132  0.00  0.00    +0.348 C 
ATOM     30  O   UNL     1     -11.300  -4.246  25.958  0.00  0.00    -0.244 OA
BRANCH  29  31
ATOM     31  O   UNL     1     -10.528  -6.196  25.207  0.00  0.00    -0.403 OA
BRANCH  31  32
ATOM     32  C   UNL     1      -9.834  -6.635  24.092  0.00  0.00    +0.250 C 
ATOM     33  C   UNL     1      -9.964  -7.930  23.646  0.00  0.00    +0.213 C 
ATOM     34  N   UNL     1      -9.295  -8.386  22.556  0.00  0.00    -0.241 NA
ATOM     35  C   UNL     1      -8.476  -7.559  21.882  0.00  0.00    +0.203 C 
ATOM     36  N   UNL     1      -8.349  -6.296  22.319  0.00  0.00    -0.092 NA
ATOM     37  N   UNL     1      -9.006  -5.843  23.391  0.00  0.00    -0.122 NA
ENDBRANCH  31  32
ENDBRANCH  29  31
ENDBRANCH   1  29
TORSDOF 7
