REMARK  Name = =
REMARK  8 active torsions:
REMARK  status: ('A' for Active; 'I' for Inactive)
REMARK    1  A    between atoms: C_1  and  C_37
REMARK    2  A    between atoms: C_2  and  N_20
REMARK    3  A    between atoms: C_5  and  C_7
REMARK    4  A    between atoms: C_13  and  N_17
REMARK    5  A    between atoms: N_18  and  N_19
REMARK    6  A    between atoms: N_22  and  C_26
REMARK    7  A    between atoms: C_37  and  O_39
REMARK    8  A    between atoms: O_39  and  C_40
REMARK                            x       y       z     vdW  Elec       q    Type
REMARK                         _______ _______ _______ _____ _____    ______ ____
ROOT
ATOM      1  C   UNL     1     -13.857  -6.465  23.402  0.00  0.00    +0.089 C 
ATOM      2  C   UNL     1     -15.019  -6.150  24.033  0.00  0.00    +0.055 C 
ATOM      3  C   UNL     1     -16.166  -6.882  23.703  0.00  0.00    +0.015 C 
ATOM      4  C   UNL     1     -16.117  -7.889  22.770  0.00  0.00    +0.003 C 
ATOM      5  C   UNL     1     -14.928  -8.207  22.130  0.00  0.00    +0.020 C 
ATOM      6  C   UNL     1     -13.814  -7.494  22.453  0.00  0.00    +0.009 C 
ENDROOT
BRANCH   5   7
ATOM      7  C   UNL     1     -14.847  -9.336  21.207  0.00  0.00    +0.104 C 
ATOM      8  N   UNL     1     -14.617 -10.568  21.687  0.00  0.00    -0.148 NA
ATOM      9  N   UNL     1     -14.544 -11.595  20.886  0.00  0.00    -0.146 NA
ATOM     10  C   UNL     1     -14.685 -11.523  19.559  0.00  0.00    +0.122 C 
ATOM     11  C   UNL     1     -14.924 -10.271  19.025  0.00  0.00    +0.024 C 
ATOM     12  C   UNL     1     -15.010  -9.150  19.864  0.00  0.00    +0.040 C 
ATOM     13  C   UNL     1     -15.281  -7.947  19.261  0.00  0.00    +0.106 C 
ATOM     14  C   UNL     1     -15.452  -7.887  17.873  0.00  0.00    +0.021 C 
ATOM     15  C   UNL     1     -15.362  -8.987  17.064  0.00  0.00    +0.002 C 
ATOM     16  C   UNL     1     -15.093 -10.202  17.665  0.00  0.00    +0.002 C 
BRANCH  13  17
ATOM     17  N   UNL     1     -15.440  -6.789  20.049  0.00  0.00    -0.133 NA
ATOM     18  N   UNL     1     -16.144  -5.786  19.712  0.00  0.00    -0.084 NA
BRANCH  18  19
ATOM     19  N   UNL     1     -16.234  -4.682  20.571  0.00  0.00    -0.264 N 
ATOM     20  H   UNL     1     -16.778  -3.902  20.315  0.00  0.00    +0.166 HD
ATOM     21  H   UNL     1     -15.753  -4.686  21.430  0.00  0.00    +0.166 HD
ENDBRANCH  18  19
ENDBRANCH  13  17
ENDBRANCH   5   7
BRANCH   2  22
ATOM     22  N   UNL     1     -15.108  -5.143  25.062  0.00  0.00    -0.294 N 
ATOM     23  C   UNL     1     -14.372  -3.916  24.917  0.00  0.00    +0.169 C 
ATOM     24  N   UNL     1     -14.502  -2.924  25.900  0.00  0.00    -0.254 NA
ATOM     25  C   UNL     1     -15.352  -3.162  27.011  0.00  0.00    +0.076 C 
ATOM     26  C   UNL     1     -16.504  -4.086  26.706  0.00  0.00    +0.039 C 
ATOM     27  C   UNL     1     -15.905  -5.377  26.236  0.00  0.00    +0.093 C 
BRANCH  24  28
ATOM     28  C   UNL     1     -13.189  -2.564  26.470  0.00  0.00    +0.077 C 
ATOM     29  C   UNL     1     -12.506  -1.466  25.732  0.00  0.00    +0.019 C 
ATOM     30  C   UNL     1     -11.311  -1.992  25.042  0.00  0.00    +0.002 C 
ATOM     31  C   UNL     1     -10.018  -1.273  25.295  0.00  0.00    +0.000 C 
ATOM     32  C   UNL     1      -9.953  -0.733  26.705  0.00  0.00    +0.000 C 
ATOM     33  C   UNL     1     -11.040   0.313  26.789  0.00  0.00    +0.000 C 
ATOM     34  C   UNL     1     -12.375  -0.177  26.392  0.00  0.00    +0.002 C 
ATOM     35  C   UNL     1     -13.433   0.276  27.290  0.00  0.00    +0.004 C 
ATOM     36  C   UNL     1     -14.313  -0.790  27.868  0.00  0.00    +0.023 C 
ATOM     37  C   UNL     1     -13.535  -2.061  27.850  0.00  0.00    -0.030 C 
ATOM     38  C   UNL     1     -13.170  -2.708  28.947  0.00  0.00    -0.008 C 
ENDBRANCH  24  28
ENDBRANCH   2  22
BRANCH   1  39
ATOM     39  C   UNL     1     -12.622  -5.750  23.608  0.00  0.00    +0.348 C 
ATOM     40  O   UNL     1     -12.402  -5.143  24.670  0.00  0.00    -0.244 OA
BRANCH  39  41
ATOM     41  O   UNL     1     -11.645  -5.713  22.640  0.00  0.00    -0.403 OA
BRANCH  41  42
ATOM     42  C   UNL     1     -10.734  -4.689  22.471  0.00  0.00    +0.250 C 
ATOM     43  C   UNL     1     -11.044  -3.525  21.800  0.00  0.00    +0.213 C 
ATOM     44  N   UNL     1     -10.073  -2.594  21.698  0.00  0.00    -0.241 NA
ATOM     45  C   UNL     1      -8.860  -2.769  22.216  0.00  0.00    +0.203 C 
ATOM     46  N   UNL     1      -8.587  -3.914  22.865  0.00  0.00    -0.092 NA
ATOM     47  N   UNL     1      -9.497  -4.864  22.999  0.00  0.00    -0.122 NA
ENDBRANCH  41  42
ENDBRANCH  39  41
ENDBRANCH   1  39
TORSDOF 8
