MODEL 1
REMARK VINA RESULT:    -8.480      0.000      0.000
REMARK INTER + INTRA:         -14.230
REMARK INTER:                 -12.199
REMARK INTRA:                  -2.031
REMARK UNBOUND:                -2.031
REMARK  Name = =
REMARK  8 active torsions:
REMARK  status: ('A' for Active; 'I' for Inactive)
REMARK    1  A    between atoms: C_2  and  C_16
REMARK    2  A    between atoms: C_3  and  N_7
REMARK    3  A    between atoms: C_5  and  N_33
REMARK    4  A    between atoms: C_11  and  S_15
REMARK    5  A    between atoms: C_18  and  C_22
REMARK    6  A    between atoms: C_19  and  O_25
REMARK    7  A    between atoms: O_25  and  N_26
REMARK    8  A    between atoms: N_33  and  S_34
REMARK                            x       y       z     vdW  Elec       q    Type
REMARK                         _______ _______ _______ _____ _____    ______ ____
ROOT
ATOM      1  O   UNL     1       2.719  -3.607  28.488  0.00  0.00    -0.344 OA
ATOM      2  C   UNL     1       2.763  -4.868  27.830  0.00  0.00    +0.157 C 
ATOM      3  C   UNL     1       4.207  -5.301  27.985  0.00  0.00    +0.113 C 
ATOM      4  C   UNL     1       5.058  -4.156  27.584  0.00  0.00    +0.006 C 
ATOM      5  C   UNL     1       4.647  -2.930  27.414  0.00  0.00    +0.069 C 
ATOM      6  C   UNL     1       3.222  -2.622  27.641  0.00  0.00    +0.184 C 
ENDROOT
BRANCH   3   7
ATOM      7  N   UNL     1       4.526  -6.507  27.257  0.00  0.00    -0.264 NA
ATOM      8  C   UNL     1       5.955  -6.699  27.402  0.00  0.00    +0.094 C 
ATOM      9  C   UNL     1       6.513  -7.842  26.624  0.00  0.00    +0.112 C 
ATOM     10  N   UNL     1       5.707  -8.181  25.468  0.00  0.00    -0.262 N 
ATOM     11  C   UNL     1       4.674  -7.346  24.944  0.00  0.00    +0.136 C 
ATOM     12  C   UNL     1       4.092  -6.360  25.909  0.00  0.00    +0.104 C 
ATOM     13  C   UNL     1       5.977  -9.423  24.846  0.00  0.00    +0.304 C 
ATOM     14  O   UNL     1       5.298  -9.767  23.820  0.00  0.00    -0.265 OA
BRANCH  11  15
ATOM     15  S   UNL     1       5.382  -6.453  23.507  0.00  0.00    -0.148 S 
ATOM     16  H   UNL     1       6.709  -6.733  23.409  0.00  0.00    +0.104 HD
ENDBRANCH  11  15
ENDBRANCH   3   7
BRANCH   2  17
ATOM     17  C   UNL     1       1.823  -5.723  28.630  0.00  0.00    +0.007 C 
ATOM     18  C   UNL     1       0.999  -6.663  28.075  0.00  0.00    +0.006 C 
ATOM     19  C   UNL     1       0.161  -7.459  28.868  0.00  0.00    +0.090 C 
ATOM     20  C   UNL     1       0.169  -7.293  30.241  0.00  0.00    +0.177 C 
ATOM     21  C   UNL     1       0.989  -6.354  30.839  0.00  0.00    +0.040 C 
ATOM     22  C   UNL     1       1.789  -5.596  30.024  0.00  0.00    +0.001 C 
BRANCH  19  23
ATOM     23  C   UNL     1      -0.716  -8.446  28.259  0.00  0.00    +0.246 C 
ATOM     24  O   UNL     1      -1.440  -8.114  27.288  0.00  0.00    -0.270 OA
ATOM     25  N   UNL     1      -0.748  -9.767  28.766  0.00  0.00    -0.325 N 
ATOM     26  H   UNL     1      -0.176 -10.016  29.527  0.00  0.00    +0.145 HD
ATOM     27  H   UNL     1      -1.342 -10.436  28.357  0.00  0.00    +0.145 HD
ENDBRANCH  19  23
BRANCH  20  28
ATOM     28  O   UNL     1      -0.661  -8.090  31.006  0.00  0.00    -0.360 OA
BRANCH  28  29
ATOM     29  N   UNL     1      -1.758  -7.695  31.680  0.00  0.00    -0.017 N 
ATOM     30  N   UNL     1      -1.826  -6.901  32.816  0.00  0.00    -0.144 NA
ATOM     31  C   UNL     1      -2.869  -6.546  33.445  0.00  0.00    +0.095 C 
ATOM     32  C   UNL     1      -4.204  -6.968  33.012  0.00  0.00    +0.059 C 
ATOM     33  C   UNL     1      -4.267  -7.444  31.603  0.00  0.00    +0.097 C 
ATOM     34  C   UNL     1      -3.037  -8.160  31.178  0.00  0.00    +0.281 C 
ATOM     35  O   UNL     1      -3.138  -9.128  30.408  0.00  0.00    -0.270 OA
ENDBRANCH  28  29
ENDBRANCH  20  28
ENDBRANCH   2  17
BRANCH   5  36
ATOM     36  N   UNL     1       5.535  -1.896  27.026  0.00  0.00    -0.224 N 
ATOM     37  H   UNL     1       5.781  -1.215  27.694  0.00  0.00    +0.173 HD
BRANCH  36  38
ATOM     38  S   UNL     1       6.207  -1.769  25.441  0.00  0.00    +0.033 S 
ATOM     39  O   UNL     1       7.678  -1.463  25.492  0.00  0.00    -0.158 OA
ATOM     40  O   UNL     1       5.541  -0.688  24.636  0.00  0.00    -0.158 OA
ATOM     41  H   UNL     1       5.999  -2.975  24.849  0.00  0.00    +0.233 HD
ENDBRANCH  36  38
ENDBRANCH   5  36
TORSDOF 8
ENDMDL
