REMARK  Name = =
REMARK  9 active torsions:
REMARK  status: ('A' for Active; 'I' for Inactive)
REMARK    1  A    between atoms: C_1  and  N_9
REMARK    2  A    between atoms: C_1  and  N_17
REMARK    3  A    between atoms: C_4  and  C_33
REMARK    4  A    between atoms: C_5  and  S_32
REMARK    5  A    between atoms: C_13  and  C_15
REMARK    6  A    between atoms: C_18  and  N_22
REMARK    7  A    between atoms: C_23  and  O_25
REMARK    8  A    between atoms: O_25  and  C_26
REMARK    9  A    between atoms: C_33  and  O_35
REMARK                            x       y       z     vdW  Elec       q    Type
REMARK                         _______ _______ _______ _____ _____    ______ ____
ROOT
ATOM      1  C   UNL     1     -10.874 -43.989  30.201  0.00  0.00    +0.204 C 
ATOM      2  C   UNL     1     -10.036 -43.227  31.065  0.00  0.00    +0.125 C 
ATOM      3  N   UNL     1      -8.974 -44.244  31.099  0.00  0.00    -0.249 N 
ATOM      4  C   UNL     1      -8.109 -43.826  32.147  0.00  0.00    +0.132 C 
ATOM      5  C   UNL     1      -8.760 -42.982  32.955  0.00  0.00    +0.021 C 
ATOM      6  C   UNL     1     -10.163 -42.815  32.421  0.00  0.00    +0.058 C 
ATOM      7  C   UNL     1      -9.702 -44.857  30.009  0.00  0.00    +0.262 C 
ATOM      8  O   UNL     1      -9.315 -45.807  29.249  0.00  0.00    -0.271 OA
ENDROOT
BRANCH   1   9
ATOM      9  N   UNL     1     -11.110 -43.116  29.020  0.00  0.00    -0.192 N 
ATOM     10  C   UNL     1     -10.913 -41.732  29.128  0.00  0.00    +0.308 C 
ATOM     11  O   UNL     1     -10.531 -41.220  30.253  0.00  0.00    -0.252 OA
ATOM     12  N   UNL     1     -11.084 -40.756  28.124  0.00  0.00    -0.313 N 
ATOM     13  C   UNL     1     -11.615 -43.715  27.873  0.00  0.00    +0.257 C 
ATOM     14  O   UNL     1     -11.888 -44.972  27.936  0.00  0.00    -0.269 OA
ATOM     15  H   UNL     1     -11.373 -41.023  27.222  0.00  0.00    +0.146 HD
ATOM     16  H   UNL     1     -10.914 -39.807  28.326  0.00  0.00    +0.146 HD
BRANCH  13  17
ATOM     17  C   UNL     1     -11.880 -43.104  26.585  0.00  0.00    +0.058 C 
ATOM     18  C   UNL     1     -13.053 -42.542  26.359  0.00  0.00    +0.005 C 
ENDBRANCH  13  17
ENDBRANCH   1   9
BRANCH   1  19
ATOM     19  N   UNL     1     -12.021 -44.722  30.454  0.00  0.00    -0.237 NA
ATOM     20  C   UNL     1     -13.288 -44.222  30.073  0.00  0.00    +0.137 C 
ATOM     21  C   UNL     1     -14.201 -45.355  30.501  0.00  0.00    +0.038 C 
ATOM     22  C   UNL     1     -13.645 -45.556  31.919  0.00  0.00    +0.021 C 
ATOM     23  C   UNL     1     -12.248 -45.007  31.866  0.00  0.00    +0.076 C 
BRANCH  20  24
ATOM     24  N   UNL     1     -13.685 -43.081  30.835  0.00  0.00    -0.259 N 
ATOM     25  C   UNL     1     -15.083 -42.809  31.055  0.00  0.00    +0.407 C 
ATOM     26  O   UNL     1     -15.956 -43.560  30.583  0.00  0.00    -0.226 OA
ATOM     27  H   UNL     1     -13.002 -42.479  31.211  0.00  0.00    +0.154 HD
BRANCH  25  28
ATOM     28  O   UNL     1     -15.456 -41.709  31.793  0.00  0.00    -0.410 OA
BRANCH  28  29
ATOM     29  C   UNL     1     -14.869 -41.318  32.974  0.00  0.00    +0.150 C 
ATOM     30  C   UNL     1     -15.585 -40.518  33.836  0.00  0.00    +0.038 C 
ATOM     31  C   UNL     1     -15.036 -40.095  35.044  0.00  0.00    +0.003 C 
ATOM     32  C   UNL     1     -13.760 -40.487  35.374  0.00  0.00    +0.000 C 
ATOM     33  C   UNL     1     -13.061 -41.284  34.502  0.00  0.00    +0.003 C 
ATOM     34  C   UNL     1     -13.599 -41.715  33.289  0.00  0.00    +0.038 C 
ENDBRANCH  28  29
ENDBRANCH  25  28
ENDBRANCH  20  24
ENDBRANCH   1  19
BRANCH   5  35
ATOM     35  S   UNL     1      -8.010 -42.249  34.376  0.00  0.00    -0.144 S 
ATOM     36  H   UNL     1      -6.724 -42.679  34.483  0.00  0.00    +0.107 HD
ENDBRANCH   5  35
BRANCH   4  37
ATOM     37  C   UNL     1      -6.725 -44.280  32.270  0.00  0.00    +0.352 C 
ATOM     38  O   UNL     1      -5.838 -43.492  32.722  0.00  0.00    -0.244 OA
BRANCH  37  39
ATOM     39  O   UNL     1      -6.329 -45.544  31.914  0.00  0.00    -0.476 OA
ATOM     40  H   UNL     1      -6.955 -46.154  31.576  0.00  0.00    +0.295 HD
ENDBRANCH  37  39
ENDBRANCH   4  37
TORSDOF 9
