REMARK  Name = =
REMARK  0 active torsions:
REMARK  status: ('A' for Active; 'I' for Inactive)
REMARK                            x       y       z     vdW  Elec       q    Type
REMARK                         _______ _______ _______ _____ _____    ______ ____
ROOT
ATOM      1  C   UNL     1     -13.307 -43.743  27.095  0.00  0.00    +0.168 C 
ATOM      2  O   UNL     1     -13.263 -44.897  27.779  0.00  0.00    -0.473 OA
ATOM      3  C   UNL     1     -12.278 -45.128  28.662  0.00  0.00    +0.206 C 
ATOM      4  C   UNL     1     -11.033 -44.306  28.399  0.00  0.00    +0.052 C 
ATOM      5  C   UNL     1     -11.506 -42.864  28.616  0.00  0.00    +0.033 C 
ATOM      6  C   UNL     1     -12.524 -42.588  27.560  0.00  0.00    +0.014 C 
ENDROOT
TORSDOF 0
