REMARK  Name = =
REMARK  2 active torsions:
REMARK  status: ('A' for Active; 'I' for Inactive)
REMARK    1  A    between atoms: O_1  and  N_2
REMARK    2  A    between atoms: O_1  and  C_3
REMARK                            x       y       z     vdW  Elec       q    Type
REMARK                         _______ _______ _______ _____ _____    ______ ____
ROOT
ATOM      1  O   UNL     1      -3.587  -3.103  31.173  0.00  0.00    -0.364 OA
ENDROOT
BRANCH   1   2
ATOM      2  N   UNL     1      -2.212  -2.986  31.000  0.00  0.00    -0.165 NA
ATOM      3  H   UNL     1      -1.836  -2.341  31.695  0.00  0.00    +0.163 HD
ATOM      4  H   UNL     1      -2.016  -2.630  30.064  0.00  0.00    +0.163 HD
ENDBRANCH   1   2
BRANCH   1   5
ATOM      5  C   UNL     1      -4.374  -3.904  30.383  0.00  0.00    +0.437 C 
ATOM      6  O   UNL     1      -3.915  -4.412  29.347  0.00  0.00    -0.236 OA
ENDBRANCH   1   5
TORSDOF 2
