REMARK  Name = =
REMARK  5 active torsions:
REMARK  status: ('A' for Active; 'I' for Inactive)
REMARK    1  A    between atoms: C_1  and  O_16
REMARK    2  A    between atoms: N_5  and  N_7
REMARK    3  A    between atoms: N_7  and  N_10
REMARK    4  A    between atoms: C_8  and  O_15
REMARK    5  A    between atoms: O_16  and  N_17
REMARK                            x       y       z     vdW  Elec       q    Type
REMARK                         _______ _______ _______ _____ _____    ______ ____
ROOT
ATOM      1  C   UNL     1       2.629  -5.979  21.500  0.00  0.00    +0.426 C 
ATOM      2  N   UNL     1       1.414  -6.771  22.560  0.00  0.00    -0.203 N 
ATOM      3  C   UNL     1       2.356  -7.363  23.336  0.00  0.00    +0.326 C 
ATOM      4  O   UNL     1       3.469  -7.503  23.685  0.00  0.00    -0.251 OA
ATOM      5  N   UNL     1       1.501  -8.344  24.150  0.00  0.00    -0.198 N 
ATOM      6  O   UNL     1       3.730  -6.343  21.774  0.00  0.00    -0.224 OA
ATOM      7  H   UNL     1       0.430  -6.774  22.573  0.00  0.00    +0.163 HD
ATOM      8  H   UNL     1       0.572  -8.358  23.825  0.00  0.00    +0.176 HD
ENDROOT
BRANCH   5   9
ATOM      9  N   UNL     1       1.660  -9.165  25.152  0.00  0.00    -0.108 N 
ATOM     10  C   UNL     1       2.522 -10.352  24.920  0.00  0.00    +0.432 C 
ATOM     11  O   UNL     1       2.914 -11.060  25.837  0.00  0.00    -0.223 OA
BRANCH   9  12
ATOM     12  N   UNL     1       1.170  -9.067  26.377  0.00  0.00    -0.165 NA
ATOM     13  C   UNL     1       1.200  -7.760  26.970  0.00  0.00    +0.113 C 
ATOM     14  C   UNL     1      -0.082  -7.768  27.916  0.00  0.00    +0.089 C 
ATOM     15  N   UNL     1      -0.330  -9.227  28.030  0.00  0.00    -0.281 NA
ATOM     16  C   UNL     1       0.024  -9.785  26.780  0.00  0.00    +0.165 C 
ATOM     17  H   UNL     1      -1.314  -9.404  28.230  0.00  0.00    +0.125 HD
ENDBRANCH   9  12
BRANCH  10  18
ATOM     18  O   UNL     1       2.926 -10.647  23.562  0.00  0.00    -0.464 OA
ATOM     19  H   UNL     1       2.628 -10.107  22.857  0.00  0.00    +0.297 HD
ENDBRANCH  10  18
ENDBRANCH   5   9
BRANCH   1  20
ATOM     20  O   UNL     1       2.047  -5.205  20.640  0.00  0.00    -0.357 OA
BRANCH  20  21
ATOM     21  N   UNL     1       2.667  -5.026  19.335  0.00  0.00    -0.164 NA
ATOM     22  H   UNL     1       2.098  -4.394  18.772  0.00  0.00    +0.163 HD
ATOM     23  H   UNL     1       2.739  -5.929  18.866  0.00  0.00    +0.163 HD
ENDBRANCH  20  21
ENDBRANCH   1  20
TORSDOF 5
