REMARK  Name = =
REMARK  6 active torsions:
REMARK  status: ('A' for Active; 'I' for Inactive)
REMARK    1  A    between atoms: C_1  and  O_22
REMARK    2  A    between atoms: N_2  and  C_7
REMARK    3  A    between atoms: N_5  and  N_13
REMARK    4  A    between atoms: N_13  and  N_16
REMARK    5  A    between atoms: C_14  and  O_21
REMARK    6  A    between atoms: O_22  and  N_23
REMARK                            x       y       z     vdW  Elec       q    Type
REMARK                         _______ _______ _______ _____ _____    ______ ____
ROOT
ATOM      1  C   UNL     1       7.113  -6.014  21.175  0.00  0.00    +0.430 C 
ATOM      2  N   UNL     1       5.960  -5.395  21.713  0.00  0.00    -0.179 N 
ATOM      3  C   UNL     1       5.951  -3.978  21.793  0.00  0.00    +0.329 C 
ATOM      4  O   UNL     1       6.997  -3.390  21.365  0.00  0.00    -0.250 OA
ATOM      5  N   UNL     1       4.922  -3.218  22.291  0.00  0.00    -0.198 N 
ATOM      6  O   UNL     1       7.191  -7.238  21.055  0.00  0.00    -0.224 OA
ATOM      7  H   UNL     1       4.136  -3.727  22.596  0.00  0.00    +0.176 HD
ENDROOT
BRANCH   2   8
ATOM      8  C   UNL     1       4.831  -6.175  22.154  0.00  0.00    +0.090 C 
ATOM      9  C   UNL     1       4.482  -7.250  21.179  0.00  0.00    +0.038 C 
ATOM     10  C   UNL     1       3.565  -8.295  21.822  0.00  0.00    +0.070 C 
ATOM     11  N   UNL     1       4.355  -8.978  22.794  0.00  0.00    -0.297 NA
ATOM     12  C   UNL     1       5.126  -8.175  23.674  0.00  0.00    +0.070 C 
ATOM     13  C   UNL     1       5.007  -6.718  23.533  0.00  0.00    +0.038 C 
ATOM     14  H   UNL     1       4.998  -9.591  22.293  0.00  0.00    +0.123 HD
ENDBRANCH   2   8
BRANCH   5  15
ATOM     15  N   UNL     1       4.820  -1.813  22.432  0.00  0.00    -0.108 N 
ATOM     16  C   UNL     1       4.677  -0.957  21.357  0.00  0.00    +0.432 C 
ATOM     17  O   UNL     1       4.586  -1.199  20.141  0.00  0.00    -0.223 OA
BRANCH  15  18
ATOM     18  N   UNL     1       4.880  -1.413  23.761  0.00  0.00    -0.165 NA
ATOM     19  C   UNL     1       5.996  -1.615  24.556  0.00  0.00    +0.113 C 
ATOM     20  C   UNL     1       5.531  -2.681  25.566  0.00  0.00    +0.089 C 
ATOM     21  N   UNL     1       4.132  -2.292  25.746  0.00  0.00    -0.281 NA
ATOM     22  C   UNL     1       3.706  -1.920  24.435  0.00  0.00    +0.165 C 
ATOM     23  H   UNL     1       4.054  -1.504  26.390  0.00  0.00    +0.125 HD
ENDBRANCH  15  18
BRANCH  16  24
ATOM     24  O   UNL     1       4.620   0.439  21.612  0.00  0.00    -0.464 OA
ATOM     25  H   UNL     1       4.678   0.757  22.491  0.00  0.00    +0.297 HD
ENDBRANCH  16  24
ENDBRANCH   5  15
BRANCH   1  26
ATOM     26  O   UNL     1       8.187  -5.242  20.767  0.00  0.00    -0.357 OA
BRANCH  26  27
ATOM     27  N   UNL     1       8.341  -4.874  19.432  0.00  0.00    -0.164 NA
ATOM     28  H   UNL     1       9.185  -4.311  19.330  0.00  0.00    +0.163 HD
ATOM     29  H   UNL     1       7.531  -4.330  19.134  0.00  0.00    +0.163 HD
ENDBRANCH  26  27
ENDBRANCH   1  26
TORSDOF 6
