REMARK  Name = =
REMARK  10 active torsions:
REMARK  status: ('A' for Active; 'I' for Inactive)
REMARK    1  A    between atoms: C_1  and  O_27
REMARK    2  A    between atoms: N_2  and  C_7
REMARK    3  A    between atoms: N_5  and  N_18
REMARK    4  A    between atoms: C_7  and  N_13
REMARK    5  A    between atoms: N_13  and  P_14
REMARK    6  A    between atoms: P_14  and  N_16
REMARK    7  A    between atoms: P_14  and  N_17
REMARK    8  A    between atoms: N_18  and  N_21
REMARK    9  A    between atoms: C_19  and  O_26
REMARK   10  A    between atoms: O_27  and  N_28
REMARK                            x       y       z     vdW  Elec       q    Type
REMARK                         _______ _______ _______ _____ _____    ______ ____
ROOT
ATOM      1  C   UNL     1       5.506  -4.910  20.430  0.00  0.00    +0.431 C 
ATOM      2  N   UNL     1       4.895  -4.448  21.616  0.00  0.00    -0.168 N 
ATOM      3  C   UNL     1       5.179  -5.002  22.867  0.00  0.00    +0.330 C 
ATOM      4  O   UNL     1       4.697  -4.491  23.953  0.00  0.00    -0.250 OA
ATOM      5  N   UNL     1       5.988  -6.141  23.143  0.00  0.00    -0.198 N 
ATOM      6  O   UNL     1       6.189  -5.955  20.442  0.00  0.00    -0.224 OA
ATOM      7  H   UNL     1       6.417  -6.624  22.400  0.00  0.00    +0.176 HD
ENDROOT
BRANCH   2   8
ATOM      8  C   UNL     1       4.057  -3.267  21.435  0.00  0.00    +0.125 C 
ATOM      9  C   UNL     1       5.010  -2.122  21.083  0.00  0.00    +0.052 C 
ATOM     10  C   UNL     1       4.311  -0.813  20.944  0.00  0.00    +0.072 C 
ATOM     11  N   UNL     1       3.423  -0.491  22.036  0.00  0.00    -0.297 NA
ATOM     12  C   UNL     1       2.551  -1.601  22.375  0.00  0.00    +0.072 C 
ATOM     13  C   UNL     1       3.469  -2.768  22.760  0.00  0.00    +0.052 C 
ATOM     14  H   UNL     1       2.849   0.309  21.769  0.00  0.00    +0.123 HD
BRANCH   8  15
ATOM     15  N   UNL     1       3.067  -3.368  20.437  0.00  0.00    -0.219 NA
ATOM     16  H   UNL     1       3.555  -3.339  19.542  0.00  0.00    +0.134 HD
BRANCH  15  17
ATOM     17  P   UNL     1       2.024  -4.695  20.372  0.00  0.00    +0.278 P 
ATOM     18  O   UNL     1       0.773  -4.302  19.549  0.00  0.00    -0.270 OA
BRANCH  17  19
ATOM     19  N   UNL     1       1.479  -5.294  21.911  0.00  0.00    -0.257 NA
ATOM     20  H   UNL     1       1.101  -4.523  22.462  0.00  0.00    +0.128 HD
ATOM     21  H   UNL     1       2.263  -5.715  22.409  0.00  0.00    +0.128 HD
ENDBRANCH  17  19
BRANCH  17  22
ATOM     22  N   UNL     1       2.656  -6.084  19.493  0.00  0.00    -0.257 NA
ATOM     23  H   UNL     1       3.496  -6.428  19.959  0.00  0.00    +0.128 HD
ATOM     24  H   UNL     1       2.886  -5.807  18.539  0.00  0.00    +0.128 HD
ENDBRANCH  17  22
ENDBRANCH  15  17
ENDBRANCH   8  15
ENDBRANCH   2   8
BRANCH   5  25
ATOM     25  N   UNL     1       6.183  -6.587  24.473  0.00  0.00    -0.108 N 
ATOM     26  C   UNL     1       7.215  -5.985  25.217  0.00  0.00    +0.432 C 
ATOM     27  O   UNL     1       7.924  -5.080  24.665  0.00  0.00    -0.223 OA
BRANCH  25  28
ATOM     28  N   UNL     1       5.427  -7.576  25.083  0.00  0.00    -0.165 NA
ATOM     29  C   UNL     1       4.054  -7.268  25.293  0.00  0.00    +0.113 C 
ATOM     30  C   UNL     1       3.323  -8.474  24.716  0.00  0.00    +0.089 C 
ATOM     31  N   UNL     1       4.287  -9.556  24.753  0.00  0.00    -0.281 NA
ATOM     32  C   UNL     1       5.516  -8.848  24.410  0.00  0.00    +0.165 C 
ATOM     33  H   UNL     1       4.067 -10.277  24.066  0.00  0.00    +0.125 HD
ENDBRANCH  25  28
BRANCH  26  34
ATOM     34  O   UNL     1       7.507  -6.323  26.533  0.00  0.00    -0.464 OA
ATOM     35  H   UNL     1       7.006  -6.984  26.969  0.00  0.00    +0.297 HD
ENDBRANCH  26  34
ENDBRANCH   5  25
BRANCH   1  36
ATOM     36  O   UNL     1       5.406  -4.259  19.202  0.00  0.00    -0.357 OA
BRANCH  36  37
ATOM     37  N   UNL     1       6.024  -4.803  18.106  0.00  0.00    -0.164 NA
ATOM     38  H   UNL     1       5.857  -4.211  17.292  0.00  0.00    +0.163 HD
ATOM     39  H   UNL     1       5.648  -5.735  17.931  0.00  0.00    +0.163 HD
ENDBRANCH  36  37
ENDBRANCH   1  36
TORSDOF 10
