REMARK  Name = =
REMARK  15 active torsions:
REMARK  status: ('A' for Active; 'I' for Inactive)
REMARK    1  A    between atoms: C_1  and  N_8
REMARK    2  A    between atoms: C_1  and  N_24
REMARK    3  A    between atoms: C_7  and  O_22
REMARK    4  A    between atoms: N_11  and  N_13
REMARK    5  A    between atoms: N_13  and  N_16
REMARK    6  A    between atoms: C_14  and  O_21
REMARK    7  A    between atoms: O_22  and  N_23
REMARK    8  A    between atoms: N_24  and  P_25
REMARK    9  A    between atoms: P_25  and  N_27
REMARK   10  A    between atoms: P_25  and  N_28
REMARK   11  A    between atoms: N_28  and  O_29
REMARK   12  A    between atoms: O_29  and  C_30
REMARK   13  A    between atoms: C_32  and  O_39
REMARK   14  A    between atoms: C_34  and  O_38
REMARK   15  A    between atoms: C_35  and  C_36
REMARK                            x       y       z     vdW  Elec       q    Type
REMARK                         _______ _______ _______ _____ _____    ______ ____
ROOT
ATOM      1  C   UNL     1       3.544  -4.818  21.764  0.00  0.00    +0.125 C 
ATOM      2  C   UNL     1       4.790  -3.898  21.780  0.00  0.00    +0.052 C 
ATOM      3  C   UNL     1       5.710  -4.284  20.641  0.00  0.00    +0.072 C 
ATOM      4  N   UNL     1       5.729  -5.721  20.467  0.00  0.00    -0.297 NA
ATOM      5  C   UNL     1       4.515  -6.060  19.785  0.00  0.00    +0.072 C 
ATOM      6  C   UNL     1       3.345  -5.369  20.399  0.00  0.00    +0.052 C 
ATOM      7  H   UNL     1       5.766  -6.186  21.374  0.00  0.00    +0.123 HD
ENDROOT
BRANCH   1   9
ATOM      8  C   UNL     1       1.269  -3.797  21.312  0.00  0.00    +0.431 C 
ATOM      9  N   UNL     1       2.426  -3.913  22.098  0.00  0.00    -0.168 N 
ATOM     10  C   UNL     1       2.523  -3.152  23.304  0.00  0.00    +0.330 C 
ATOM     11  O   UNL     1       3.600  -3.354  23.990  0.00  0.00    -0.250 OA
ATOM     12  N   UNL     1       1.631  -2.238  23.837  0.00  0.00    -0.198 N 
ATOM     13  O   UNL     1       0.357  -2.999  21.620  0.00  0.00    -0.224 OA
ATOM     14  H   UNL     1       0.790  -2.036  23.366  0.00  0.00    +0.176 HD
BRANCH  12  15
ATOM     15  N   UNL     1       1.934  -1.590  25.070  0.00  0.00    -0.108 N 
ATOM     16  C   UNL     1       1.903  -0.184  25.111  0.00  0.00    +0.432 C 
ATOM     17  O   UNL     1       2.154   0.450  26.155  0.00  0.00    -0.223 OA
BRANCH  15  18
ATOM     18  N   UNL     1       2.239  -2.372  26.164  0.00  0.00    -0.165 NA
ATOM     19  C   UNL     1       1.109  -2.809  26.928  0.00  0.00    +0.113 C 
ATOM     20  C   UNL     1       1.091  -1.856  28.105  0.00  0.00    +0.089 C 
ATOM     21  N   UNL     1       2.476  -1.586  28.330  0.00  0.00    -0.281 NA
ATOM     22  C   UNL     1       3.188  -1.838  27.084  0.00  0.00    +0.165 C 
ATOM     23  H   UNL     1       2.834  -2.198  29.064  0.00  0.00    +0.125 HD
ENDBRANCH  15  18
BRANCH  16  24
ATOM     24  O   UNL     1       1.592   0.547  23.978  0.00  0.00    -0.464 OA
ATOM     25  H   UNL     1       1.398   0.106  23.175  0.00  0.00    +0.297 HD
ENDBRANCH  16  24
ENDBRANCH  12  15
BRANCH   8  26
ATOM     26  O   UNL     1       0.975  -4.501  20.154  0.00  0.00    -0.357 OA
BRANCH  26  27
ATOM     27  N   UNL     1      -0.218  -4.300  19.522  0.00  0.00    -0.164 NA
ATOM     28  H   UNL     1      -0.268  -4.894  18.694  0.00  0.00    +0.163 HD
ATOM     29  H   UNL     1      -0.295  -3.322  19.244  0.00  0.00    +0.163 HD
ENDBRANCH  26  27
ENDBRANCH   8  26
ENDBRANCH   1   9
BRANCH   1  30
ATOM     30  N   UNL     1       3.805  -5.823  22.702  0.00  0.00    -0.217 NA
ATOM     31  H   UNL     1       4.180  -5.353  23.526  0.00  0.00    +0.134 HD
BRANCH  30  32
ATOM     32  P   UNL     1       2.607  -6.857  23.256  0.00  0.00    +0.312 P 
ATOM     33  O   UNL     1       2.202  -6.597  24.715  0.00  0.00    -0.267 OA
BRANCH  32  34
ATOM     34  N   UNL     1       1.149  -6.931  22.326  0.00  0.00    -0.255 NA
ATOM     35  H   UNL     1       1.378  -7.103  21.347  0.00  0.00    +0.128 HD
ATOM     36  H   UNL     1       0.649  -6.046  22.407  0.00  0.00    +0.128 HD
ENDBRANCH  32  34
BRANCH  32  37
ATOM     37  N   UNL     1       3.248  -8.504  23.293  0.00  0.00    -0.075 NA
ATOM     38  H   UNL     1       3.685  -8.673  24.199  0.00  0.00    +0.178 HD
BRANCH  37  39
ATOM     39  O   UNL     1       2.246  -9.419  23.100  0.00  0.00    -0.397 OA
BRANCH  39  40
ATOM     40  C   UNL     1       2.227 -10.576  23.885  0.00  0.00    +0.175 C 
ATOM     41  C   UNL     1       1.871 -10.532  25.209  0.00  0.00    +0.076 C 
ATOM     42  C   UNL     1       1.851 -11.659  25.983  0.00  0.00    +0.140 C 
ATOM     43  C   UNL     1       2.189 -12.854  25.436  0.00  0.00    +0.073 C 
ATOM     44  C   UNL     1       2.552 -12.923  24.102  0.00  0.00    +0.143 C 
ATOM     45  C   UNL     1       2.577 -11.781  23.302  0.00  0.00    +0.112 C 
BRANCH  45  46
ATOM     46  C   UNL     1       2.945 -11.782  21.908  0.00  0.00    +0.240 C 
ATOM     47  O   UNL     1       3.363 -12.765  21.270  0.00  0.00    -0.283 OA
ENDBRANCH  45  46
BRANCH  44  48
ATOM     48  O   UNL     1       2.886 -14.147  23.594  0.00  0.00    -0.505 OA
ATOM     49  H   UNL     1       2.864 -14.905  24.145  0.00  0.00    +0.292 HD
ENDBRANCH  44  48
BRANCH  42  50
ATOM     50  O   UNL     1       1.489 -11.612  27.320  0.00  0.00    -0.505 OA
ATOM     51  H   UNL     1       1.253 -10.795  27.713  0.00  0.00    +0.292 HD
ENDBRANCH  42  50
ENDBRANCH  39  40
ENDBRANCH  37  39
ENDBRANCH  32  37
ENDBRANCH  30  32
ENDBRANCH   1  30
TORSDOF 15
