REMARK  Name = =
REMARK  0 active torsions:
REMARK  status: ('A' for Active; 'I' for Inactive)
REMARK                            x       y       z     vdW  Elec       q    Type
REMARK                         _______ _______ _______ _____ _____    ______ ____
ROOT
ATOM      1  C   UNL     1      -3.829  -4.112  31.045  0.00  0.00    +0.000 C 
ATOM      2  C   UNL     1      -3.040  -5.111  30.485  0.00  0.00    +0.000 C 
ATOM      3  C   UNL     1      -2.179  -4.870  29.431  0.00  0.00    +0.000 C 
ATOM      4  C   UNL     1      -2.119  -3.582  28.938  0.00  0.00    +0.000 C 
ATOM      5  C   UNL     1      -2.899  -2.586  29.489  0.00  0.00    +0.000 C 
ATOM      6  C   UNL     1      -3.765  -2.826  30.547  0.00  0.00    +0.000 C 
ATOM      7  C   UNL     1      -4.545  -1.830  31.098  0.00  0.00    +0.000 C 
ATOM      8  C   UNL     1      -5.412  -2.062  32.154  0.00  0.00    +0.000 C 
ATOM      9  C   UNL     1      -5.464  -3.353  32.641  0.00  0.00    +0.000 C 
ATOM     10  C   UNL     1      -4.689  -4.359  32.099  0.00  0.00    +0.000 C 
ENDROOT
TORSDOF 0
