REMARK  Name = =
REMARK  1 active torsions:
REMARK  status: ('A' for Active; 'I' for Inactive)
REMARK    1  A    between atoms: C_3  and  S_11
REMARK                            x       y       z     vdW  Elec       q    Type
REMARK                         _______ _______ _______ _____ _____    ______ ____
ROOT
ATOM      1  C   UNL     1      -3.610  -4.706  31.750  0.00  0.00    +0.000 C 
ATOM      2  C   UNL     1      -2.860  -5.849  31.549  0.00  0.00    +0.006 C 
ATOM      3  C   UNL     1      -2.122  -5.985  30.394  0.00  0.00    +0.021 C 
ATOM      4  C   UNL     1      -2.166  -4.953  29.474  0.00  0.00    +0.006 C 
ATOM      5  C   UNL     1      -2.916  -3.816  29.684  0.00  0.00    +0.000 C 
ATOM      6  C   UNL     1      -3.661  -3.670  30.840  0.00  0.00    +0.000 C 
ATOM      7  C   UNL     1      -4.426  -2.559  31.097  0.00  0.00    +0.000 C 
ATOM      8  C   UNL     1      -5.137  -2.488  32.268  0.00  0.00    +0.000 C 
ATOM      9  C   UNL     1      -5.120  -3.495  33.213  0.00  0.00    +0.000 C 
ATOM     10  C   UNL     1      -4.346  -4.599  32.929  0.00  0.00    +0.000 C 
ENDROOT
BRANCH   3  11
ATOM     11  S   UNL     1      -1.125  -7.447  30.071  0.00  0.00    -0.141 S 
ATOM     12  H   UNL     1      -1.242  -8.314  31.112  0.00  0.00    +0.107 HD
ENDBRANCH   3  11
TORSDOF 1
