REMARK  Name = =
REMARK  4 active torsions:
REMARK  status: ('A' for Active; 'I' for Inactive)
REMARK    1  A    between atoms: C_2  and  N_12
REMARK    2  A    between atoms: C_3  and  S_11
REMARK    3  A    between atoms: N_12  and  CA_13
REMARK    4  A    between atoms: CA_13  and  C_15
REMARK                            x       y       z     vdW  Elec       q    Type
REMARK                         _______ _______ _______ _____ _____    ______ ____
ROOT
ATOM      1  C   UNK A   0      -3.679  -4.306  31.698  0.00  0.00    +0.014 C 
ATOM      2  C   UNK A   0      -2.684  -5.142  31.237  0.00  0.00    +0.050 C 
ATOM      3  C   UNK A   0      -2.259  -4.960  29.926  0.00  0.00    +0.035 C 
ATOM      4  C   UNK A   0      -2.797  -3.990  29.109  0.00  0.00    +0.007 C 
ATOM      5  C   UNK A   0      -3.791  -3.173  29.608  0.00  0.00    +0.001 C 
ATOM      6  C   UNK A   0      -4.253  -3.316  30.920  0.00  0.00    +0.001 C 
ATOM      7  C   UNK A   0      -5.246  -2.489  31.399  0.00  0.00    +0.000 C 
ATOM      8  C   UNK A   0      -5.705  -2.625  32.689  0.00  0.00    +0.000 C 
ATOM      9  C   UNK A   0      -5.153  -3.594  33.476  0.00  0.00    +0.000 C 
ATOM     10  C   UNK A   0      -4.160  -4.422  32.999  0.00  0.00    +0.001 C 
ENDROOT
BRANCH   3  11
ATOM     11  S   UNK A   0      -0.971  -6.002  29.244  0.00  0.00    -0.140 S 
ATOM     12  H   UNK A   0      -0.563  -6.894  30.186  0.00  0.00    +0.107 HD
ENDBRANCH   3  11
BRANCH   2  13
ATOM     13  N   ALA A   1      -2.123  -6.136  32.055  0.00  0.00    -0.328 N 
ATOM     14  H   ALA A   1      -1.298  -5.919  32.547  0.00  0.00    +0.147 HD
BRANCH  13  15
ATOM     15  CA  ALA A   1      -2.677  -7.442  32.216  0.00  0.00    +0.135 C 
ATOM     16  CB  ALA A   1      -3.965  -7.665  31.506  0.00  0.00    +0.030 C 
BRANCH  15  17
ATOM     17  C   ALA A   1      -1.705  -8.527  32.036  0.00  0.00    +0.227 C 
ATOM     18  O   ALA A   1      -0.538  -8.430  32.425  0.00  0.00    -0.286 OA
ENDBRANCH  15  17
ENDBRANCH  13  15
ENDBRANCH   2  13
TORSDOF 4
