REMARK  Name = =
REMARK  6 active torsions:
REMARK  status: ('A' for Active; 'I' for Inactive)
REMARK    1  A    between atoms: C_2  and  N_15
REMARK    2  A    between atoms: C_3  and  S_11
REMARK    3  A    between atoms: C_5  and  N_12
REMARK    4  A    between atoms: N_12  and  N_13
REMARK    5  A    between atoms: N_15  and  CA_16
REMARK    6  A    between atoms: CA_16  and  C_18
REMARK                            x       y       z     vdW  Elec       q    Type
REMARK                         _______ _______ _______ _____ _____    ______ ____
ROOT
ATOM      1  C   UNK A   0      -3.288  -4.993  31.185  0.00  0.00    +0.015 C 
ATOM      2  C   UNK A   0      -2.704  -4.650  29.986  0.00  0.00    +0.050 C 
ATOM      3  C   UNK A   0      -2.857  -3.400  29.421  0.00  0.00    +0.036 C 
ATOM      4  C   UNK A   0      -3.625  -2.459  30.082  0.00  0.00    +0.023 C 
ATOM      5  C   UNK A   0      -4.216  -2.790  31.289  0.00  0.00    +0.068 C 
ATOM      6  C   UNK A   0      -4.054  -4.060  31.852  0.00  0.00    +0.016 C 
ATOM      7  C   UNK A   0      -4.653  -4.381  33.062  0.00  0.00    +0.001 C 
ATOM      8  C   UNK A   0      -4.501  -5.630  33.630  0.00  0.00    +0.000 C 
ATOM      9  C   UNK A   0      -3.737  -6.570  32.970  0.00  0.00    +0.000 C 
ATOM     10  C   UNK A   0      -3.141  -6.241  31.761  0.00  0.00    +0.001 C 
ENDROOT
BRANCH   3  11
ATOM     11  S   UNK A   0      -2.120  -2.922  27.878  0.00  0.00    -0.140 S 
ATOM     12  H   UNK A   0      -1.406  -3.964  27.374  0.00  0.00    +0.107 HD
ENDBRANCH   3  11
BRANCH   5  13
ATOM     13  N   UNK A   0      -5.009  -1.853  31.995  0.00  0.00    -0.201 N 
ATOM     14  H   UNK A   0      -4.539  -1.130  32.471  0.00  0.00    +0.178 HD
BRANCH  13  15
ATOM     15  N   UNK A   0      -6.393  -1.870  32.071  0.00  0.00    +0.046 NA
ATOM     16  O   UNK A   0      -7.070  -2.104  31.059  0.00  0.00    -0.126 OA
ENDBRANCH  13  15
ENDBRANCH   5  13
BRANCH   2  17
ATOM     17  N   ALA A   1      -1.909  -5.598  29.283  0.00  0.00    -0.328 N 
ATOM     18  H   ALA A   1      -2.264  -6.046  28.481  0.00  0.00    +0.147 HD
BRANCH  17  19
ATOM     19  CA  ALA A   1      -0.584  -5.896  29.753  0.00  0.00    +0.135 C 
ATOM     20  CB  ALA A   1       0.484  -5.485  28.754  0.00  0.00    +0.030 C 
BRANCH  19  21
ATOM     21  C   ALA A   1      -0.455  -7.372  29.997  0.00  0.00    +0.227 C 
ATOM     22  O   ALA A   1       0.057  -7.824  30.984  0.00  0.00    -0.286 OA
ENDBRANCH  19  21
ENDBRANCH  17  19
ENDBRANCH   2  17
TORSDOF 6
