REMARK  Name = =
REMARK  10 active torsions:
REMARK  status: ('A' for Active; 'I' for Inactive)
REMARK    1  A    between atoms: C_2  and  N_15
REMARK    2  A    between atoms: C_3  and  S_11
REMARK    3  A    between atoms: C_5  and  N_12
REMARK    4  A    between atoms: N_12  and  N_13
REMARK    5  A    between atoms: N_15  and  C_16
REMARK    6  A    between atoms: C_16  and  C_18
REMARK    7  A    between atoms: C_18  and  O_20
REMARK    8  A    between atoms: O_20  and  P_21
REMARK    9  A    between atoms: P_21  and  O_23
REMARK   10  A    between atoms: P_21  and  O_24
REMARK                            x       y       z     vdW  Elec       q    Type
REMARK                         _______ _______ _______ _____ _____    ______ ____
ROOT
ATOM      1  C   UNL     1      -3.105  -4.064  30.457  0.00  0.00    +0.015 C 
ATOM      2  C   UNL     1      -2.720  -5.385  30.410  0.00  0.00    +0.050 C 
ATOM      3  C   UNL     1      -3.096  -6.207  31.447  0.00  0.00    +0.036 C 
ATOM      4  C   UNL     1      -3.837  -5.691  32.482  0.00  0.00    +0.023 C 
ATOM      5  C   UNL     1      -4.224  -4.390  32.540  0.00  0.00    +0.068 C 
ATOM      6  C   UNL     1      -3.849  -3.553  31.499  0.00  0.00    +0.016 C 
ATOM      7  C   UNL     1      -4.224  -2.223  31.523  0.00  0.00    +0.001 C 
ATOM      8  C   UNL     1      -3.862  -1.373  30.502  0.00  0.00    +0.000 C 
ATOM      9  C   UNL     1      -3.119  -1.879  29.458  0.00  0.00    +0.000 C 
ATOM     10  C   UNL     1      -2.752  -3.211  29.448  0.00  0.00    +0.001 C 
ENDROOT
BRANCH   3  11
ATOM     11  S   UNL     1      -2.628  -7.943  31.452  0.00  0.00    -0.140 S 
ATOM     12  H   UNL     1      -1.904  -8.221  30.335  0.00  0.00    +0.107 HD
ENDBRANCH   3  11
BRANCH   5  13
ATOM     13  N   UNL     1      -4.989  -3.875  33.619  0.00  0.00    -0.201 N 
ATOM     14  H   UNL     1      -4.566  -3.652  34.480  0.00  0.00    +0.178 HD
BRANCH  13  15
ATOM     15  N   UNL     1      -6.359  -3.694  33.423  0.00  0.00    +0.046 NA
ATOM     16  O   UNL     1      -7.021  -2.772  33.916  0.00  0.00    -0.126 OA
ENDBRANCH  13  15
ENDBRANCH   5  13
BRANCH   2  17
ATOM     17  N   UNL     1      -1.944  -5.923  29.326  0.00  0.00    -0.325 N 
ATOM     18  H   UNL     1      -2.405  -6.184  28.496  0.00  0.00    +0.147 HD
BRANCH  17  19
ATOM     19  C   UNL     1      -0.534  -6.091  29.410  0.00  0.00    +0.170 C 
ATOM     20  C   UNL     1       0.266  -4.920  28.929  0.00  0.00    +0.033 C 
BRANCH  19  21
ATOM     21  C   UNL     1      -0.031  -7.382  28.944  0.00  0.00    +0.342 C 
ATOM     22  O   UNL     1       0.807  -7.995  29.643  0.00  0.00    -0.248 OA
BRANCH  21  23
ATOM     23  O   UNL     1      -0.445  -7.953  27.759  0.00  0.00    -0.370 OA
BRANCH  23  24
ATOM     24  P   UNL     1       0.525  -9.046  26.870  0.00  0.00    +0.530 P 
ATOM     25  O   UNL     1       1.809  -9.263  27.598  0.00  0.00    -0.216 OA
BRANCH  24  26
ATOM     26  O   UNL     1       0.828  -8.381  25.327  0.00  0.00    -0.293 OA
ATOM     27  H   UNL     1       1.271  -7.524  25.426  0.00  0.00    +0.223 HD
ENDBRANCH  24  26
BRANCH  24  28
ATOM     28  O   UNL     1      -0.241 -10.525  26.639  0.00  0.00    -0.293 OA
ATOM     29  H   UNL     1      -0.428 -10.930  27.500  0.00  0.00    +0.223 HD
ENDBRANCH  24  28
ENDBRANCH  23  24
ENDBRANCH  21  23
ENDBRANCH  19  21
ENDBRANCH  17  19
ENDBRANCH   2  17
TORSDOF 10
