REMARK  Name = =
REMARK  14 active torsions:
REMARK  status: ('A' for Active; 'I' for Inactive)
REMARK    1  A    between atoms: C_2  and  N_15
REMARK    2  A    between atoms: C_3  and  S_11
REMARK    3  A    between atoms: C_5  and  N_12
REMARK    4  A    between atoms: C_8  and  O_25
REMARK    5  A    between atoms: N_12  and  N_13
REMARK    6  A    between atoms: N_15  and  C_16
REMARK    7  A    between atoms: C_16  and  C_18
REMARK    8  A    between atoms: C_18  and  O_20
REMARK    9  A    between atoms: O_20  and  P_21
REMARK   10  A    between atoms: P_21  and  O_23
REMARK   11  A    between atoms: P_21  and  O_24
REMARK   12  A    between atoms: O_25  and  C_26
REMARK   13  A    between atoms: C_26  and  C_28
REMARK   14  A    between atoms: C_28  and  O_30
REMARK                            x       y       z     vdW  Elec       q    Type
REMARK                         _______ _______ _______ _____ _____    ______ ____
ROOT
ATOM      1  C   UNL     1      -3.264  -4.798  30.591  0.00  0.00    +0.015 C 
ATOM      2  C   UNL     1      -2.349  -5.358  29.707  0.00  0.00    +0.050 C 
ATOM      3  C   UNL     1      -1.710  -4.553  28.796  0.00  0.00    +0.036 C 
ATOM      4  C   UNL     1      -1.998  -3.208  28.787  0.00  0.00    +0.023 C 
ATOM      5  C   UNL     1      -2.917  -2.626  29.671  0.00  0.00    +0.069 C 
ATOM      6  C   UNL     1      -3.557  -3.433  30.583  0.00  0.00    +0.019 C 
ATOM      7  C   UNL     1      -4.459  -2.887  31.457  0.00  0.00    +0.039 C 
ATOM      8  C   UNL     1      -5.095  -3.711  32.369  0.00  0.00    +0.146 C 
ATOM      9  C   UNL     1      -4.836  -5.057  32.410  0.00  0.00    +0.038 C 
ATOM     10  C   UNL     1      -3.915  -5.592  31.513  0.00  0.00    +0.004 C 
ENDROOT
BRANCH   3  11
ATOM     11  S   UNL     1      -0.530  -5.276  27.655  0.00  0.00    -0.140 S 
ATOM     12  H   UNL     1      -0.440  -6.614  27.883  0.00  0.00    +0.107 HD
ENDBRANCH   3  11
BRANCH   5  13
ATOM     13  N   UNL     1      -3.165  -1.234  29.608  0.00  0.00    -0.201 N 
ATOM     14  H   UNL     1      -3.867  -0.825  30.164  0.00  0.00    +0.178 HD
BRANCH  13  15
ATOM     15  N   UNL     1      -2.385  -0.438  28.729  0.00  0.00    +0.046 NA
ATOM     16  O   UNL     1      -1.423   0.220  29.125  0.00  0.00    -0.126 OA
ENDBRANCH  13  15
ENDBRANCH   5  13
BRANCH   2  17
ATOM     17  N   UNL     1      -2.121  -6.758  29.794  0.00  0.00    -0.325 N 
ATOM     18  H   UNL     1      -2.746  -7.394  29.376  0.00  0.00    +0.147 HD
BRANCH  17  19
ATOM     19  C   UNL     1      -0.961  -7.232  30.504  0.00  0.00    +0.170 C 
ATOM     20  C   UNL     1      -0.304  -6.074  31.221  0.00  0.00    +0.033 C 
BRANCH  19  21
ATOM     21  C   UNL     1      -0.051  -7.874  29.521  0.00  0.00    +0.342 C 
ATOM     22  O   UNL     1      -0.358  -9.008  29.088  0.00  0.00    -0.248 OA
BRANCH  21  23
ATOM     23  O   UNL     1       1.094  -7.237  29.103  0.00  0.00    -0.370 OA
BRANCH  23  24
ATOM     24  P   UNL     1       2.051  -7.853  27.799  0.00  0.00    +0.530 P 
ATOM     25  O   UNL     1       1.224  -8.024  26.562  0.00  0.00    -0.216 OA
BRANCH  24  26
ATOM     26  O   UNL     1       2.752  -9.291  28.317  0.00  0.00    -0.293 OA
ATOM     27  H   UNL     1       2.058  -9.949  28.479  0.00  0.00    +0.223 HD
ENDBRANCH  24  26
BRANCH  24  28
ATOM     28  O   UNL     1       3.295  -6.731  27.528  0.00  0.00    -0.293 OA
ATOM     29  H   UNL     1       3.822  -6.631  28.336  0.00  0.00    +0.223 HD
ENDBRANCH  24  28
ENDBRANCH  23  24
ENDBRANCH  21  23
ENDBRANCH  19  21
ENDBRANCH  17  19
ENDBRANCH   2  17
BRANCH   8  30
ATOM     30  O   UNL     1      -6.009  -3.190  33.262  0.00  0.00    -0.447 OA
BRANCH  30  31
ATOM     31  C   UNL     1      -6.780  -2.085  33.032  0.00  0.00    +0.220 C 
ATOM     32  C   UNL     1      -6.272  -0.883  33.219  0.00  0.00    +0.048 C 
BRANCH  31  33
ATOM     33  C   UNL     1      -8.174  -2.206  32.577  0.00  0.00    +0.373 C 
ATOM     34  O   UNL     1      -8.691  -3.351  32.471  0.00  0.00    -0.242 OA
BRANCH  33  35
ATOM     35  O   UNL     1      -8.917  -1.077  32.266  0.00  0.00    -0.475 OA
ATOM     36  H   UNL     1      -8.532  -0.226  32.345  0.00  0.00    +0.296 HD
ENDBRANCH  33  35
ENDBRANCH  31  33
ENDBRANCH  30  31
ENDBRANCH   8  30
TORSDOF 14
