REMARK  Name = =
REMARK  1 active torsions:
REMARK  status: ('A' for Active; 'I' for Inactive)
REMARK    1  A    between atoms: C_1  and  C_8
REMARK                            x       y       z     vdW  Elec       q    Type
REMARK                         _______ _______ _______ _____ _____    ______ ____
ROOT
ATOM      1  C   UNL     1      51.365 156.218  29.320  0.00  0.00    +0.042 C 
ATOM      2  C   UNL     1      51.365 154.986  29.933  0.00  0.00    +0.003 C 
ATOM      3  C   UNL     1      52.002 153.871  29.425  0.00  0.00    +0.000 C 
ATOM      4  C   UNL     1      52.684 153.977  28.233  0.00  0.00    +0.000 C 
ATOM      5  C   UNL     1      52.696 155.206  27.599  0.00  0.00    +0.000 C 
ATOM      6  C   UNL     1      52.059 156.312  28.113  0.00  0.00    +0.003 C 
ENDROOT
BRANCH   1   8
ATOM      7  O   UNL     1      50.793 158.536  29.447  0.00  0.00    -0.283 OA
ATOM      8  C   UNL     1      50.680 157.374  29.887  0.00  0.00    +0.234 C 
ENDBRANCH   1   8
TORSDOF 1
