REMARK  Name = =
REMARK  0 active torsions:
REMARK  status: ('A' for Active; 'I' for Inactive)
REMARK                            x       y       z     vdW  Elec       q    Type
REMARK                         _______ _______ _______ _____ _____    ______ ____
ROOT
ATOM      1  C   UNL     1      52.445 155.949  28.146  0.00  0.00    +0.142 C 
ATOM      2  C   UNL     1      51.457 154.876  28.627  0.00  0.00    +0.032 C 
ATOM      3  C   UNL     1      52.252 153.571  28.463  0.00  0.00    +0.005 C 
ATOM      4  C   UNL     1      52.533 153.430  26.994  0.00  0.00    +0.032 C 
ATOM      5  C   UNL     1      52.982 154.659  26.316  0.00  0.00    +0.142 C 
ATOM      6  O   UNL     1      52.476 155.839  26.763  0.00  0.00    -0.354 OA
ENDROOT
TORSDOF 0
