REMARK  Name = =
REMARK  1 active torsions:
REMARK  status: ('A' for Active; 'I' for Inactive)
REMARK    1  A    between atoms: N_1  and  C_12
REMARK                            x       y       z     vdW  Elec       q    Type
REMARK                         _______ _______ _______ _____ _____    ______ ____
ROOT
ATOM      1  N   UNL     1      51.426 157.004  28.980  0.00  0.00    -0.250 NA
ATOM      2  C   UNL     1      52.351 157.927  29.577  0.00  0.00    +0.079 C 
ATOM      3  C   UNL     1      51.790 159.322  29.373  0.00  0.00    +0.043 C 
ATOM      4  C   UNL     1      50.754 159.504  30.421  0.00  0.00    -0.025 C 
ATOM      5  C   UNL     1      49.664 158.695  30.628  0.00  0.00    -0.025 C 
ATOM      6  C   UNL     1      48.805 159.021  31.653  0.00  0.00    -0.005 C 
ATOM      7  C   UNL     1      48.988 160.115  32.475  0.00  0.00    -0.000 C 
ATOM      8  C   UNL     1      50.097 160.895  32.228  0.00  0.00    -0.000 C 
ATOM      9  C   UNL     1      50.977 160.600  31.211  0.00  0.00    -0.005 C 
ATOM     10  C   UNL     1      49.230 157.454  29.890  0.00  0.00    +0.043 C 
ATOM     11  C   UNL     1      50.423 156.483  29.843  0.00  0.00    +0.079 C 
ENDROOT
BRANCH   1  12
ATOM     12  C   UNL     1      52.172 156.048  28.232  0.00  0.00    +0.176 C 
ATOM     13  C   UNL     1      52.636 154.891  29.094  0.00  0.00    +0.047 C 
ATOM     14  C   UNL     1      53.149 153.738  28.305  0.00  0.00    +0.007 C 
ATOM     15  C   UNL     1      53.346 154.008  26.851  0.00  0.00    +0.032 C 
ATOM     16  C   UNL     1      52.421 155.027  26.271  0.00  0.00    +0.144 C 
ATOM     17  O   UNL     1      51.457 155.483  27.176  0.00  0.00    -0.341 OA
ENDBRANCH   1  12
TORSDOF 1
