REMARK  Name = =
REMARK  2 active torsions:
REMARK  status: ('A' for Active; 'I' for Inactive)
REMARK    1  A    between atoms: N_1  and  C_12
REMARK    2  A    between atoms: C_12  and  C_18
REMARK                            x       y       z     vdW  Elec       q    Type
REMARK                         _______ _______ _______ _____ _____    ______ ____
ROOT
ATOM      1  N   UNL     1      51.248 156.935  28.850  0.00  0.00    -0.249 NA
ATOM      2  C   UNL     1      52.069 157.827  29.534  0.00  0.00    +0.079 C 
ATOM      3  C   UNL     1      51.600 159.267  29.533  0.00  0.00    +0.043 C 
ATOM      4  C   UNL     1      50.437 159.470  30.418  0.00  0.00    -0.025 C 
ATOM      5  C   UNL     1      49.616 158.465  30.885  0.00  0.00    -0.025 C 
ATOM      6  C   UNL     1      48.579 158.791  31.702  0.00  0.00    -0.005 C 
ATOM      7  C   UNL     1      48.328 160.102  32.078  0.00  0.00    -0.000 C 
ATOM      8  C   UNL     1      49.170 161.090  31.593  0.00  0.00    -0.000 C 
ATOM      9  C   UNL     1      50.223 160.784  30.766  0.00  0.00    -0.005 C 
ATOM     10  C   UNL     1      49.656 156.991  30.634  0.00  0.00    +0.043 C 
ATOM     11  C   UNL     1      49.884 156.819  29.151  0.00  0.00    +0.079 C 
ENDROOT
BRANCH   1  12
ATOM     12  C   UNL     1      51.870 155.803  28.200  0.00  0.00    +0.177 C 
ATOM     13  C   UNL     1      52.970 155.320  29.072  0.00  0.00    +0.049 C 
ATOM     14  C   UNL     1      53.306 153.863  28.900  0.00  0.00    +0.007 C 
ATOM     15  C   UNL     1      51.985 153.103  28.885  0.00  0.00    +0.032 C 
ATOM     16  C   UNL     1      51.273 153.631  27.630  0.00  0.00    +0.144 C 
ATOM     17  O   UNL     1      50.867 154.902  27.914  0.00  0.00    -0.339 OA
BRANCH  12  18
ATOM     18  C   UNL     1      52.500 156.224  26.894  0.00  0.00    +0.105 C 
ATOM     19  N   UNL     1      53.737 156.554  26.852  0.00  0.00    -0.298 NA
ATOM     20  H   UNL     1      54.145 156.828  25.999  0.00  0.00    +0.187 HD
ENDBRANCH  12  18
ENDBRANCH   1  12
TORSDOF 2
