REMARK  Name = =
REMARK  7 active torsions:
REMARK  status: ('A' for Active; 'I' for Inactive)
REMARK    1  A    between atoms: P_1  and  N_3
REMARK    2  A    between atoms: P_1  and  O_4
REMARK    3  A    between atoms: P_1  and  O_13
REMARK    4  A    between atoms: O_4  and  C_6
REMARK    5  A    between atoms: C_5  and  C_12
REMARK    6  A    between atoms: O_13  and  S_14
REMARK    7  A    between atoms: S_14  and  O_16
REMARK                            x       y       z     vdW  Elec       q    Type
REMARK                         _______ _______ _______ _____ _____    ______ ____
ROOT
ATOM      1  P   UNL     1      53.304 153.536  26.804  0.00  0.00    +0.481 P 
ATOM      2  O   UNL     1      52.634 152.209  27.121  0.00  0.00    -0.227 OA
ENDROOT
BRANCH   1   3
ATOM      3  N   UNL     1      54.917 153.207  26.229  0.00  0.00    -0.225 NA
ATOM      4  H   UNL     1      55.445 152.723  26.956  0.00  0.00    +0.131 HD
ATOM      5  H   UNL     1      55.382 154.085  25.999  0.00  0.00    +0.131 HD
ENDBRANCH   1   3
BRANCH   1   6
ATOM      6  O   UNL     1      53.420 154.505  28.208  0.00  0.00    -0.411 OA
BRANCH   6   8
ATOM      7  C   UNL     1      52.381 156.412  29.166  0.00  0.00    +0.077 C 
ATOM      8  C   UNL     1      52.325 155.096  28.797  0.00  0.00    +0.151 C 
ATOM      9  C   UNL     1      51.183 154.339  29.006  0.00  0.00    +0.037 C 
ATOM     10  C   UNL     1      50.090 154.934  29.596  0.00  0.00    +0.003 C 
ATOM     11  C   UNL     1      50.167 156.247  29.956  0.00  0.00    +0.000 C 
ATOM     12  C   UNL     1      51.291 157.013  29.756  0.00  0.00    +0.006 C 
BRANCH   7  14
ATOM     13  O   UNL     1      53.638 158.412  29.251  0.00  0.00    -0.283 OA
ATOM     14  C   UNL     1      53.589 157.204  28.944  0.00  0.00    +0.237 C 
ENDBRANCH   7  14
ENDBRANCH   6   8
ENDBRANCH   1   6
BRANCH   1  15
ATOM     15  O   UNL     1      52.369 154.330  25.669  0.00  0.00    -0.124 OA
BRANCH  15  16
ATOM     16  S   UNL     1      52.835 155.966  25.572  0.00  0.00    +0.149 S 
ATOM     17  O   UNL     1      54.267 155.994  25.050  0.00  0.00    -0.136 OA
BRANCH  16  18
ATOM     18  O   UNL     1      51.765 156.775  24.541  0.00  0.00    -0.245 OA
ATOM     19  H   UNL     1      52.021 157.709  24.478  0.00  0.00    +0.245 HD
ENDBRANCH  16  18
ENDBRANCH  15  16
ENDBRANCH   1  15
TORSDOF 7
