REMARK  Name = =
REMARK  8 active torsions:
REMARK  status: ('A' for Active; 'I' for Inactive)
REMARK    1  A    between atoms: P_1  and  N_3
REMARK    2  A    between atoms: P_1  and  O_4
REMARK    3  A    between atoms: P_1  and  O_13
REMARK    4  A    between atoms: O_4  and  C_6
REMARK    5  A    between atoms: C_5  and  C_12
REMARK    6  A    between atoms: O_13  and  S_14
REMARK    7  A    between atoms: S_14  and  O_16
REMARK    8  A    between atoms: O_16  and  C_17
REMARK                            x       y       z     vdW  Elec       q    Type
REMARK                         _______ _______ _______ _____ _____    ______ ____
ROOT
ATOM      1  P   UNL     1      53.038 156.287  27.659  0.00  0.00    +0.474 P 
ATOM      2  O   UNL     1      54.354 156.925  27.189  0.00  0.00    -0.227 OA
ENDROOT
BRANCH   1   3
ATOM      3  N   UNL     1      53.452 154.797  28.566  0.00  0.00    -0.225 NA
ATOM      4  H   UNL     1      53.846 155.049  29.472  0.00  0.00    +0.131 HD
ATOM      5  H   UNL     1      54.135 154.256  28.037  0.00  0.00    +0.131 HD
ENDBRANCH   1   3
BRANCH   1   6
ATOM      6  O   UNL     1      52.007 157.234  28.394  0.00  0.00    -0.411 OA
BRANCH   6   8
ATOM      7  C   UNL     1      50.201 157.283  29.944  0.00  0.00    +0.077 C 
ATOM      8  C   UNL     1      51.254 157.868  29.246  0.00  0.00    +0.151 C 
ATOM      9  C   UNL     1      51.490 159.245  29.511  0.00  0.00    +0.037 C 
ATOM     10  C   UNL     1      50.720 159.920  30.392  0.00  0.00    +0.003 C 
ATOM     11  C   UNL     1      49.680 159.335  31.078  0.00  0.00    +0.000 C 
ATOM     12  C   UNL     1      49.445 158.005  30.831  0.00  0.00    +0.006 C 
BRANCH   7  14
ATOM     13  O   UNL     1      50.381 155.156  28.891  0.00  0.00    -0.283 OA
ATOM     14  C   UNL     1      49.864 155.871  29.756  0.00  0.00    +0.237 C 
ENDBRANCH   7  14
ENDBRANCH   6   8
ENDBRANCH   1   6
BRANCH   1  15
ATOM     15  O   UNL     1      52.393 155.641  26.171  0.00  0.00    -0.156 OA
BRANCH  15  16
ATOM     16  S   UNL     1      53.713 155.093  25.247  0.00  0.00    +0.370 S 
ATOM     17  O   UNL     1      53.758 153.560  25.404  0.00  0.00    -0.182 OA
BRANCH  16  18
ATOM     18  O   UNL     1      53.538 155.537  23.588  0.00  0.00    -0.378 OA
BRANCH  18  19
ATOM     19  C   UNL     1      54.546 155.169  22.711  0.00  0.00    +0.160 C 
ATOM     20  C   UNL     1      54.852 153.881  22.635  0.00  0.00    +0.039 C 
ATOM     21  C   UNL     1      55.901 153.407  21.737  0.00  0.00    +0.003 C 
ATOM     22  C   UNL     1      56.532 154.303  21.004  0.00  0.00    +0.000 C 
ATOM     23  C   UNL     1      56.274 155.739  21.012  0.00  0.00    +0.003 C 
ATOM     24  C   UNL     1      55.206 156.215  21.927  0.00  0.00    +0.039 C 
ENDBRANCH  18  19
ENDBRANCH  16  18
ENDBRANCH  15  16
ENDBRANCH   1  15
TORSDOF 8
