REMARK  Name = =
REMARK  10 active torsions:
REMARK  status: ('A' for Active; 'I' for Inactive)
REMARK    1  A    between atoms: P_1  and  N_3
REMARK    2  A    between atoms: P_1  and  O_4
REMARK    3  A    between atoms: P_1  and  O_18
REMARK    4  A    between atoms: O_4  and  C_6
REMARK    5  A    between atoms: C_5  and  C_17
REMARK    6  A    between atoms: C_7  and  N_11
REMARK    7  A    between atoms: N_11  and  N_14
REMARK    8  A    between atoms: O_18  and  S_19
REMARK    9  A    between atoms: S_19  and  O_21
REMARK   10  A    between atoms: O_21  and  C_22
REMARK                            x       y       z     vdW  Elec       q    Type
REMARK                         _______ _______ _______ _____ _____    ______ ____
ROOT
ATOM      1  P   UNL     1      52.077 155.904  28.184  0.00  0.00    +0.474 P 
ATOM      2  O   UNL     1      50.873 154.963  27.873  0.00  0.00    -0.227 OA
ENDROOT
BRANCH   1   3
ATOM      3  N   UNL     1      53.289 154.847  28.905  0.00  0.00    -0.225 NA
ATOM      4  H   UNL     1      52.971 154.542  29.825  0.00  0.00    +0.131 HD
ATOM      5  H   UNL     1      54.169 155.354  29.000  0.00  0.00    +0.131 HD
ENDBRANCH   1   3
BRANCH   1   6
ATOM      6  O   UNL     1      51.654 157.192  29.069  0.00  0.00    -0.410 OA
BRANCH   6   8
ATOM      7  C   UNL     1      53.219 158.898  29.566  0.00  0.00    +0.078 C 
ATOM      8  C   UNL     1      51.964 158.344  29.611  0.00  0.00    +0.166 C 
ATOM      9  C   UNL     1      50.893 159.008  30.273  0.00  0.00    +0.112 C 
ATOM     10  C   UNL     1      51.150 160.216  30.863  0.00  0.00    +0.020 C 
ATOM     11  C   UNL     1      52.407 160.777  30.819  0.00  0.00    +0.002 C 
ATOM     12  C   UNL     1      53.429 160.124  30.177  0.00  0.00    +0.006 C 
BRANCH   9  13
ATOM     13  N   UNL     1      49.608 158.426  30.307  0.00  0.00    -0.148 N 
ATOM     14  C   UNL     1      48.466 159.248  30.300  0.00  0.00    +0.328 C 
ATOM     15  O   UNL     1      47.304 158.740  30.334  0.00  0.00    -0.263 OA
BRANCH  13  16
ATOM     16  N   UNL     1      49.467 157.053  30.346  0.00  0.00    -0.168 NA
ATOM     17  C   UNL     1      48.653 156.374  29.649  0.00  0.00    +0.140 C 
ENDBRANCH  13  16
ENDBRANCH   9  13
BRANCH   7  19
ATOM     18  O   UNL     1      55.480 158.858  28.858  0.00  0.00    -0.283 OA
ATOM     19  C   UNL     1      54.370 158.270  28.903  0.00  0.00    +0.237 C 
ENDBRANCH   7  19
ENDBRANCH   6   8
ENDBRANCH   1   6
BRANCH   1  20
ATOM     20  O   UNL     1      52.610 156.418  26.636  0.00  0.00    -0.156 OA
BRANCH  20  21
ATOM     21  S   UNL     1      52.531 155.203  25.488  0.00  0.00    +0.370 S 
ATOM     22  O   UNL     1      51.873 155.781  24.229  0.00  0.00    -0.182 OA
BRANCH  21  23
ATOM     23  O   UNL     1      54.169 154.754  25.091  0.00  0.00    -0.378 OA
BRANCH  23  24
ATOM     24  C   UNL     1      54.381 153.399  24.923  0.00  0.00    +0.160 C 
ATOM     25  C   UNL     1      55.066 152.757  25.850  0.00  0.00    +0.039 C 
ATOM     26  C   UNL     1      55.326 151.336  25.741  0.00  0.00    +0.003 C 
ATOM     27  C   UNL     1      54.871 150.679  24.705  0.00  0.00    +0.000 C 
ATOM     28  C   UNL     1      54.105 151.288  23.630  0.00  0.00    +0.003 C 
ATOM     29  C   UNL     1      53.833 152.743  23.720  0.00  0.00    +0.039 C 
ENDBRANCH  23  24
ENDBRANCH  21  23
ENDBRANCH  20  21
ENDBRANCH   1  20
TORSDOF 10
