REMARK  Name = =
REMARK  7 active torsions:
REMARK  status: ('A' for Active; 'I' for Inactive)
REMARK    1  A    between atoms: C_1  and  O_9
REMARK    2  A    between atoms: C_3  and  O_8
REMARK    3  A    between atoms: C_4  and  O_7
REMARK    4  A    between atoms: C_6  and  O_22
REMARK    5  A    between atoms: O_9  and  C_12
REMARK    6  A    between atoms: O_18  and  O_21
REMARK    7  A    between atoms: O_22  and  C_23
REMARK                            x       y       z     vdW  Elec       q    Type
REMARK                         _______ _______ _______ _____ _____    ______ ____
ROOT
ATOM      1  C   UNL     1     -13.721 -43.952  31.387  0.00  0.00    +0.183 C 
ATOM      2  C   UNL     1     -14.283 -44.466  32.523  0.00  0.00    +0.080 C 
ATOM      3  C   UNL     1     -14.357 -43.675  33.646  0.00  0.00    +0.171 C 
ATOM      4  C   UNL     1     -13.893 -42.382  33.682  0.00  0.00    +0.171 C 
ATOM      5  C   UNL     1     -13.328 -41.892  32.506  0.00  0.00    +0.080 C 
ATOM      6  C   UNL     1     -13.235 -42.649  31.366  0.00  0.00    +0.183 C 
ENDROOT
BRANCH   4   7
ATOM      7  O   UNL     1     -13.957 -41.570  34.798  0.00  0.00    -0.503 OA
ATOM      8  H   UNL     1     -14.336 -41.894  35.592  0.00  0.00    +0.292 HD
ENDBRANCH   4   7
BRANCH   3   9
ATOM      9  O   UNL     1     -14.935 -44.219  34.806  0.00  0.00    -0.503 OA
ATOM     10  H   UNL     1     -15.257 -45.099  34.801  0.00  0.00    +0.292 HD
ENDBRANCH   3   9
BRANCH   1  11
ATOM     11  O   UNL     1     -13.633 -44.713  30.255  0.00  0.00    -0.449 OA
BRANCH  11  14
ATOM     12 CL   UNL     1     -13.844 -44.781  27.344  0.00  0.00    -0.079 Cl
ATOM     13  C   UNL     1     -12.417 -45.204  28.263  0.00  0.00    +0.092 C 
ATOM     14  C   UNL     1     -12.487 -45.117  29.637  0.00  0.00    +0.156 C 
ATOM     15  C   UNL     1     -11.354 -45.454  30.351  0.00  0.00    +0.038 C 
ATOM     16  C   UNL     1     -10.197 -45.860  29.762  0.00  0.00    +0.003 C 
ATOM     17  C   UNL     1     -10.142 -45.942  28.397  0.00  0.00    +0.001 C 
ATOM     18  C   UNL     1     -11.232 -45.620  27.646  0.00  0.00    +0.014 C 
ENDBRANCH  11  14
ENDBRANCH   1  11
BRANCH   6  19
ATOM     19  O   UNL     1     -12.661 -42.142  30.184  0.00  0.00    -0.450 OA
BRANCH  19  20
ATOM     20  C   UNL     1     -11.307 -42.203  29.991  0.00  0.00    +0.145 C 
ATOM     21  C   UNL     1     -10.422 -42.321  31.054  0.00  0.00    +0.035 C 
ATOM     22  C   UNL     1      -9.073 -42.377  30.793  0.00  0.00    +0.003 C 
ATOM     23  C   UNL     1      -8.631 -42.319  29.486  0.00  0.00    +0.000 C 
ATOM     24  C   UNL     1      -9.505 -42.205  28.424  0.00  0.00    +0.003 C 
ATOM     25  C   UNL     1     -10.842 -42.148  28.682  0.00  0.00    +0.037 C 
ATOM     26  C   UNL     1      -8.190 -42.509  31.854  0.00  0.00    +0.000 C 
ATOM     27  C   UNL     1      -8.620 -42.586  33.158  0.00  0.00    +0.000 C 
ATOM     28  C   UNL     1      -9.960 -42.531  33.421  0.00  0.00    +0.000 C 
ATOM     29  C   UNL     1     -10.849 -42.399  32.366  0.00  0.00    +0.003 C 
ENDBRANCH  19  20
ENDBRANCH   6  19
TORSDOF 6
REMARK  Name = =
REMARK  7 active torsions:
REMARK  status: ('A' for Active; 'I' for Inactive)
REMARK    1  A    between atoms: C_1  and  O_9
REMARK    2  A    between atoms: C_3  and  O_8
REMARK    3  A    between atoms: C_4  and  O_7
REMARK    4  A    between atoms: C_6  and  O_22
REMARK    5  A    between atoms: O_9  and  C_12
REMARK    6  A    between atoms: O_18  and  O_21
REMARK    7  A    between atoms: O_22  and  C_23
REMARK                            x       y       z     vdW  Elec       q    Type
REMARK                         _______ _______ _______ _____ _____    ______ ____
ROOT
ATOM      1  P   UNL     1      -8.728 -46.307  30.672  0.00  0.00    +0.000 P 
ENDROOT
TORSDOF 0
REMARK  Name = =
REMARK  7 active torsions:
REMARK  status: ('A' for Active; 'I' for Inactive)
REMARK    1  A    between atoms: C_1  and  O_9
REMARK    2  A    between atoms: C_3  and  O_8
REMARK    3  A    between atoms: C_4  and  O_7
REMARK    4  A    between atoms: C_6  and  O_22
REMARK    5  A    between atoms: O_9  and  C_12
REMARK    6  A    between atoms: O_18  and  O_21
REMARK    7  A    between atoms: O_22  and  C_23
REMARK                            x       y       z     vdW  Elec       q    Type
REMARK                         _______ _______ _______ _____ _____    ______ ____
ROOT
ATOM      1  O   UNL     1      -8.700 -47.051  32.011  0.00  0.00    -0.253 OA
ATOM      2  H   UNL     1      -7.815 -46.847  32.351  0.00  0.00    +0.253 HD
ENDROOT
BRANCH   1   3
ATOM      3  O   UNL     1      -8.577 -47.966  30.765  0.00  0.00    -0.253 OA
ATOM      4  H   UNL     1      -9.462 -48.170  30.425  0.00  0.00    +0.253 HD
ENDBRANCH   1   3
TORSDOF 1
REMARK  Name = =
REMARK  7 active torsions:
REMARK  status: ('A' for Active; 'I' for Inactive)
REMARK    1  A    between atoms: C_1  and  O_9
REMARK    2  A    between atoms: C_3  and  O_8
REMARK    3  A    between atoms: C_4  and  O_7
REMARK    4  A    between atoms: C_6  and  O_22
REMARK    5  A    between atoms: O_9  and  C_12
REMARK    6  A    between atoms: O_18  and  O_21
REMARK    7  A    between atoms: O_22  and  C_23
REMARK                            x       y       z     vdW  Elec       q    Type
REMARK                         _______ _______ _______ _____ _____    ______ ____
ROOT
ATOM      1  O   HOH     1      -7.853 -45.472  29.498  0.00  0.00    -0.253 OA
ATOM      2  H   HOH     0      -6.883 -45.472  29.498  0.00  0.00    +0.253 HD
ENDROOT
TORSDOF 0
REMARK  Name = =
REMARK  7 active torsions:
REMARK  status: ('A' for Active; 'I' for Inactive)
REMARK    1  A    between atoms: C_1  and  O_9
REMARK    2  A    between atoms: C_3  and  O_8
REMARK    3  A    between atoms: C_4  and  O_7
REMARK    4  A    between atoms: C_6  and  O_22
REMARK    5  A    between atoms: O_9  and  C_12
REMARK    6  A    between atoms: O_18  and  O_21
REMARK    7  A    between atoms: O_22  and  C_23
REMARK                            x       y       z     vdW  Elec       q    Type
REMARK                         _______ _______ _______ _____ _____    ______ ____
ROOT
ATOM      1  O   HOH     1      -8.529 -45.487  32.125  0.00  0.00    -0.253 OA
ATOM      2  H   HOH     0      -7.559 -45.487  32.125  0.00  0.00    +0.253 HD
ENDROOT
TORSDOF 0
