REMARK  Name = =
REMARK  3 active torsions:
REMARK  status: ('A' for Active; 'I' for Inactive)
REMARK    1  A    between atoms: C_1  and  C_19
REMARK    2  A    between atoms: C_1  and  N_28
REMARK    3  A    between atoms: C_26  and  O_27
REMARK                            x       y       z     vdW  Elec       q    Type
REMARK                         _______ _______ _______ _____ _____    ______ ____
ROOT
ATOM      1  C   UNL     1      50.932 156.107  29.573  0.00  0.00    +0.080 C 
ATOM      2  C   UNL     1      51.082 155.839  28.117  0.00  0.00    +0.019 C 
ATOM      3  C   UNL     1      52.235 154.876  28.083  0.00  0.00    +0.002 C 
ATOM      4  C   UNL     1      52.950 154.758  26.799  0.00  0.00    +0.000 C 
ATOM      5  C   UNL     1      53.220 156.031  26.088  0.00  0.00    +0.000 C 
ATOM      6  C   UNL     1      53.741 155.723  24.701  0.00  0.00    +0.000 C 
ATOM      7  C   UNL     1      54.624 154.509  24.786  0.00  0.00    +0.000 C 
ATOM      8  C   UNL     1      53.723 153.309  24.992  0.00  0.00    +0.000 C 
ATOM      9  C   UNL     1      52.576 153.614  25.934  0.00  0.00    +0.000 C 
ATOM     10  C   UNL     1      55.451 154.310  23.550  0.00  0.00    +0.000 C 
ATOM     11  C   UNL     1      56.271 155.554  23.303  0.00  0.00    +0.000 C 
ATOM     12  C   UNL     1      55.267 156.666  22.973  0.00  0.00    +0.000 C 
ATOM     13  C   UNL     1      54.506 156.944  24.237  0.00  0.00    +0.000 C 
ATOM     14  C   UNL     1      51.919 156.778  25.944  0.00  0.00    +0.000 C 
ATOM     15  C   UNL     1      51.258 157.042  27.274  0.00  0.00    +0.002 C 
ATOM     16  C   UNL     1      53.212 155.459  29.112  0.00  0.00    +0.002 C 
ATOM     17  C   UNL     1      52.319 156.071  30.171  0.00  0.00    +0.020 C 
ENDROOT
BRANCH   1  19
ATOM     18  N   UNL     1      49.843 158.331  29.163  0.00  0.00    -0.266 NA
ATOM     19  C   UNL     1      50.352 157.443  29.903  0.00  0.00    +0.067 C 
ATOM     20  C   UNL     1      50.317 157.902  31.312  0.00  0.00    +0.016 C 
ATOM     21  C   UNL     1      49.690 159.224  31.245  0.00  0.00    +0.039 C 
ATOM     22  C   UNL     1      49.411 159.457  29.915  0.00  0.00    +0.150 C 
ATOM     23  C   UNL     1      48.809 160.663  29.605  0.00  0.00    +0.002 C 
ATOM     24  C   UNL     1      48.493 161.603  30.577  0.00  0.00    +0.001 C 
ATOM     25  C   UNL     1      48.785 161.341  31.913  0.00  0.00    +0.036 C 
ATOM     26  C   UNL     1      49.390 160.135  32.234  0.00  0.00    +0.132 C 
BRANCH  26  27
ATOM     27  O   UNL     1      49.686 159.868  33.584  0.00  0.00    -0.506 OA
ATOM     28  H   UNL     1      50.095 159.059  33.823  0.00  0.00    +0.292 HD
ENDBRANCH  26  27
ENDBRANCH   1  19
BRANCH   1  29
ATOM     29  N   UNL     1      50.080 155.144  30.246  0.00  0.00    -0.270 NA
ATOM     30  C   UNL     1      50.664 153.826  30.343  0.00  0.00    +0.072 C 
ATOM     31  C   UNL     1      50.288 153.269  31.723  0.00  0.00    +0.017 C 
ATOM     32  C   UNL     1      49.003 152.515  31.597  0.00  0.00    +0.001 C 
ATOM     33  C   UNL     1      47.913 153.532  31.286  0.00  0.00    +0.001 C 
ATOM     34  C   UNL     1      48.005 153.867  29.825  0.00  0.00    +0.017 C 
ATOM     35  C   UNL     1      48.782 155.120  29.603  0.00  0.00    +0.072 C 
ENDBRANCH   1  29
TORSDOF 3
