MODEL 1
REMARK VINA RESULT:    -7.544      0.000      0.000
REMARK INTER + INTRA:         -14.915
REMARK INTER:                 -12.615
REMARK INTRA:                  -2.299
REMARK UNBOUND:                -2.299
REMARK  Name = =
REMARK  12 active torsions:
REMARK  status: ('A' for Active; 'I' for Inactive)
REMARK    1  A    between atoms: C_1  and  N_2
REMARK    2  A    between atoms: C_1  and  C_16
REMARK    3  A    between atoms: C_1  and  O_25
REMARK    4  A    between atoms: C_3  and  C_7
REMARK    5  A    between atoms: C_7  and  C_8
REMARK    6  A    between atoms: C_13  and  C_14
REMARK    7  A    between atoms: C_16  and  O_18
REMARK    8  A    between atoms: O_18  and  C_23
REMARK    9  A    between atoms: O_25  and  C_26
REMARK   10  A    between atoms: C_26  and  C_27
REMARK   11  A    between atoms: C_27  and  N_28
REMARK   12  A    between atoms: C_32  and  O_34
REMARK                            x       y       z     vdW  Elec       q    Type
REMARK                         _______ _______ _______ _____ _____    ______ ____
ROOT
ATOM      1  C   UNL     1       1.318  -6.204  30.606  0.00  0.00    +0.301 C 
ENDROOT
BRANCH   1   2
ATOM      2  N   UNL     1       0.906  -6.757  29.351  0.00  0.00    -0.224 N 
ATOM      3  C   UNL     1      -0.236  -6.533  28.794  0.00  0.00    +0.143 C 
ATOM      4  N   UNL     1      -0.192  -7.244  27.594  0.00  0.00    -0.135 NA
ATOM      5  N   UNL     1       0.901  -7.797  27.554  0.00  0.00    -0.129 NA
ATOM      6  C   UNL     1       1.802  -7.685  28.515  0.00  0.00    +0.194 C 
BRANCH   3   7
ATOM      7  C   UNL     1      -1.513  -5.798  29.066  0.00  0.00    +0.113 C 
BRANCH   7   8
ATOM      8  C   UNL     1      -1.326  -4.445  28.399  0.00  0.00    +0.117 A 
ATOM      9  N   UNL     1      -0.736  -4.094  27.266  0.00  0.00    -0.081 NA
ATOM     10  O   UNL     1      -0.721  -2.791  27.124  0.00  0.00    -0.357 OA
ATOM     11  C   UNL     1      -1.336  -2.217  28.209  0.00  0.00    +0.164 A 
ATOM     12  C   UNL     1      -1.454  -0.757  28.307  0.00  0.00    +0.076 C 
ATOM     13  C   UNL     1      -1.720  -3.247  29.013  0.00  0.00    +0.118 A 
BRANCH  13  14
ATOM     14  C   UNL     1      -2.468  -3.139  30.165  0.00  0.00    +0.105 C 
ATOM     15  N   UNL     1      -3.145  -3.061  31.218  0.00  0.00    -0.191 NA
ENDBRANCH  13  14
ENDBRANCH   7   8
ENDBRANCH   3   7
ENDBRANCH   1   2
BRANCH   1  16
ATOM     16  C   UNL     1       1.928  -4.849  30.523  0.00  0.00    +0.370 C 
ATOM     17  O   UNL     1       2.533  -4.376  31.529  0.00  0.00    -0.245 OA
BRANCH  16  18
ATOM     18  O   UNL     1       1.900  -4.025  29.402  0.00  0.00    -0.413 OA
BRANCH  18  23
ATOM     19 BR   UNL     1       6.002  -1.927  25.743  0.00  0.00    -0.021 Br
ATOM     20  C   UNL     1       5.041  -3.031  26.956  0.00  0.00    +0.148 C 
ATOM     21  N   UNL     1       4.830  -3.831  27.562  0.00  0.00    -0.227 NA
ATOM     22  C   UNL     1       4.179  -4.539  28.370  0.00  0.00    +0.144 C 
ATOM     23  C   UNL     1       2.998  -3.770  28.601  0.00  0.00    +0.199 C 
ATOM     24  S   UNL     1       3.238  -2.282  27.566  0.00  0.00    -0.023 S 
ENDBRANCH  18  23
ENDBRANCH  16  18
ENDBRANCH   1  16
BRANCH   1  25
ATOM     25  O   UNL     1       0.365  -6.293  31.552  0.00  0.00    -0.327 OA
BRANCH  25  26
ATOM     26  C   UNL     1       0.269  -7.384  32.338  0.00  0.00    +0.162 C 
BRANCH  26  27
ATOM     27  C   UNL     1      -0.645  -7.195  33.503  0.00  0.00    +0.105 C 
BRANCH  27  28
ATOM     28  N   UNL     1      -2.002  -7.096  33.151  0.00  0.00    -0.269 NA
ATOM     29  C   UNL     1      -2.640  -8.207  32.496  0.00  0.00    +0.072 C 
ATOM     30  C   UNL     1      -4.056  -7.814  32.016  0.00  0.00    +0.020 C 
ATOM     31  C   UNL     1      -4.070  -6.273  31.945  0.00  0.00    +0.032 C 
ATOM     32  C   UNL     1      -4.171  -5.914  33.455  0.00  0.00    +0.126 C 
ATOM     33  C   UNL     1      -2.885  -6.370  34.029  0.00  0.00    +0.102 C 
BRANCH  32  34
ATOM     34  O   UNL     1      -4.367  -4.556  33.668  0.00  0.00    -0.383 OA
ATOM     35  H   UNL     1      -4.212  -4.074  32.841  0.00  0.00    +0.210 HD
ENDBRANCH  32  34
ENDBRANCH  27  28
ENDBRANCH  26  27
ENDBRANCH  25  26
ENDBRANCH   1  25
TORSDOF 12
ENDMDL
