REMARK  Name = =
REMARK  1 active torsions:
REMARK  status: ('A' for Active; 'I' for Inactive)
REMARK    1  A    between atoms: C_6  and  C_8
REMARK                            x       y       z     vdW  Elec       q    Type
REMARK                         _______ _______ _______ _____ _____    ______ ____
ROOT
ATOM      1  N   UNL     1      51.843 156.682  28.976  0.00  0.00    -0.276 N 
ATOM      2  C   UNL     1      50.998 155.502  29.099  0.00  0.00    +0.094 C 
ATOM      3  C   UNL     1      52.083 154.421  29.205  0.00  0.00    +0.023 C 
ATOM      4  C   UNL     1      52.964 154.812  28.031  0.00  0.00    +0.023 C 
ATOM      5  C   UNL     1      52.837 156.318  27.980  0.00  0.00    +0.094 C 
ATOM      6  C   UNL     1      51.774 157.915  29.631  0.00  0.00    +0.249 C 
ATOM      7  O   UNL     1      50.868 158.110  30.473  0.00  0.00    -0.270 OA
ENDROOT
BRANCH   6   8
ATOM      8  C   UNL     1      52.722 158.974  29.363  0.00  0.00    +0.058 C 
ATOM      9  C   UNL     1      53.108 159.832  30.295  0.00  0.00    +0.005 C 
ENDBRANCH   6   8
TORSDOF 1
