REMARK  Name = =
REMARK  2 active torsions:
REMARK  status: ('A' for Active; 'I' for Inactive)
REMARK    1  A    between atoms: C_1  and  C_8
REMARK    2  A    between atoms: C_2  and  S_10
REMARK                            x       y       z     vdW  Elec       q    Type
REMARK                         _______ _______ _______ _____ _____    ______ ____
ROOT
ATOM      1  C   UNL     1      51.451 158.025  29.975  0.00  0.00    +0.065 C 
ATOM      2  C   UNL     1      50.995 159.251  30.053  0.00  0.00    +0.038 C 
ENDROOT
BRANCH   1   8
ATOM      3  N   UNL     1      52.115 156.343  28.244  0.00  0.00    -0.276 N 
ATOM      4  C   UNL     1      51.036 155.427  28.554  0.00  0.00    +0.094 C 
ATOM      5  C   UNL     1      51.381 154.106  27.916  0.00  0.00    +0.023 C 
ATOM      6  C   UNL     1      52.165 154.574  26.684  0.00  0.00    +0.023 C 
ATOM      7  C   UNL     1      52.902 155.780  27.175  0.00  0.00    +0.094 C 
ATOM      8  C   UNL     1      52.328 157.568  28.900  0.00  0.00    +0.250 C 
ATOM      9  O   UNL     1      53.295 158.290  28.554  0.00  0.00    -0.270 OA
ENDBRANCH   1   8
BRANCH   2  10
ATOM     10  S   UNL     1      49.957 159.746  31.348  0.00  0.00    -0.098 S 
ATOM     11  N   UNL     1      48.244 158.775  31.210  0.00  0.00    -0.227 NA
ATOM     12  C   UNL     1      47.472 159.723  31.089  0.00  0.00    +0.106 C 
ATOM     13  C   UNL     1      47.863 161.085  31.072  0.00  0.00    +0.028 C 
ATOM     14  C   UNL     1      49.146 161.315  31.196  0.00  0.00    +0.035 C 
ATOM     15  H   UNL     1      50.805 159.621  32.404  0.00  0.00    +0.115 HD
ENDBRANCH   2  10
TORSDOF 2
