REMARK  Name = =
REMARK  3 active torsions:
REMARK  status: ('A' for Active; 'I' for Inactive)
REMARK    1  A    between atoms: C_1  and  C_8
REMARK    2  A    between atoms: C_2  and  S_10
REMARK    3  A    between atoms: C_14  and  C_16
REMARK                            x       y       z     vdW  Elec       q    Type
REMARK                         _______ _______ _______ _____ _____    ______ ____
ROOT
ATOM      1  C   UNL     1      51.429 157.868  29.332  0.00  0.00    +0.066 C 
ATOM      2  C   UNL     1      50.511 157.703  30.260  0.00  0.00    +0.050 C 
ENDROOT
BRANCH   1   8
ATOM      3  N   UNL     1      52.198 155.493  28.717  0.00  0.00    -0.276 N 
ATOM      4  C   UNL     1      51.258 154.613  29.349  0.00  0.00    +0.094 C 
ATOM      5  C   UNL     1      51.659 153.202  28.992  0.00  0.00    +0.023 C 
ATOM      6  C   UNL     1      52.464 153.360  27.749  0.00  0.00    +0.023 C 
ATOM      7  C   UNL     1      53.188 154.673  27.982  0.00  0.00    +0.094 C 
ATOM      8  C   UNL     1      52.268 156.898  28.717  0.00  0.00    +0.250 C 
ATOM      9  O   UNL     1      53.273 157.377  28.038  0.00  0.00    -0.270 OA
ENDBRANCH   1   8
BRANCH   2  10
ATOM     10  S   UNL     1      49.599 158.930  30.893  0.00  0.00    -0.038 S 
ATOM     11  N   UNL     1      49.542 159.622  32.399  0.00  0.00    -0.182 NA
ATOM     12  C   UNL     1      49.133 160.828  32.259  0.00  0.00    +0.094 C 
ATOM     13  C   UNL     1      48.842 161.271  30.940  0.00  0.00    +0.026 C 
ATOM     14  C   UNL     1      49.026 160.386  29.997  0.00  0.00    +0.047 C 
BRANCH  14  15
ATOM     15  C   UNL     1      48.856 160.419  28.580  0.00  0.00    +0.049 C 
ATOM     16  S   UNL     1      48.311 161.712  27.750  0.00  0.00    -0.050 S 
ENDBRANCH  14  15
ENDBRANCH   2  10
TORSDOF 3
REMARK  Name = =
REMARK  3 active torsions:
REMARK  status: ('A' for Active; 'I' for Inactive)
REMARK    1  A    between atoms: C_1  and  C_8
REMARK    2  A    between atoms: C_2  and  S_10
REMARK    3  A    between atoms: C_14  and  C_16
REMARK                            x       y       z     vdW  Elec       q    Type
REMARK                         _______ _______ _______ _____ _____    ______ ____
ROOT
ATOM      1  H   UNK     1      47.744 158.059  30.922  0.00  0.00    +0.000 HD
ENDROOT
TORSDOF 0
