REMARK  Name = =
REMARK  2 active torsions:
REMARK  status: ('A' for Active; 'I' for Inactive)
REMARK    1  A    between atoms: N_1  and  N_4
REMARK    2  A    between atoms: C_2  and  O_5
REMARK                            x       y       z     vdW  Elec       q    Type
REMARK                         _______ _______ _______ _____ _____    ______ ____
ROOT
ATOM      1  N   UNL     1     -12.574 -43.277  29.872  0.00  0.00    -0.219 N 
ATOM      2  C   UNL     1     -12.051 -42.871  28.608  0.00  0.00    +0.412 C 
ATOM      3  O   UNL     1     -10.818 -43.129  28.421  0.00  0.00    -0.225 OA
ATOM      4  H   UNL     1     -13.524 -43.095  30.055  0.00  0.00    +0.172 HD
ENDROOT
BRANCH   1   5
ATOM      5  N   UNL     1     -11.840 -43.906  30.854  0.00  0.00    -0.252 NA
ATOM      6  H   UNL     1     -10.880 -44.031  30.533  0.00  0.00    +0.141 HD
ATOM      7  H   UNL     1     -12.252 -44.817  31.056  0.00  0.00    +0.141 HD
ENDBRANCH   1   5
BRANCH   2   8
ATOM      8  O   UNL     1     -12.824 -42.239  27.642  0.00  0.00    -0.465 OA
ATOM      9  H   UNL     1     -13.729 -42.062  27.808  0.00  0.00    +0.297 HD
ENDBRANCH   2   8
TORSDOF 2
