REMARK  Name = =
REMARK  11 active torsions:
REMARK  status: ('A' for Active; 'I' for Inactive)
REMARK    1  A    between atoms: N_1  and  C_3
REMARK    2  A    between atoms: N_1  and  N_14
REMARK    3  A    between atoms: N_1  and  C_18
REMARK    4  A    between atoms: C_10  and  C_11
REMARK    5  A    between atoms: C_11  and  O_13
REMARK    6  A    between atoms: C_15  and  O_17
REMARK    7  A    between atoms: C_18  and  C_20
REMARK    8  A    between atoms: C_20  and  C_26
REMARK    9  A    between atoms: N_21  and  N_22
REMARK   10  A    between atoms: N_22  and  C_23
REMARK   11  A    between atoms: C_23  and  N_25
REMARK                            x       y       z     vdW  Elec       q    Type
REMARK                         _______ _______ _______ _____ _____    ______ ____
ROOT
ATOM      1  N   UNL     1     -10.915 -43.791  29.864  0.00  0.00    -0.175 NA
ENDROOT
BRANCH   1   3
ATOM      2  N   UNL     1      -8.658 -43.110  30.443  0.00  0.00    -0.234 N 
ATOM      3  C   UNL     1      -9.554 -43.914  29.614  0.00  0.00    +0.176 C 
ATOM      4  C   UNL     1      -8.985 -43.190  28.451  0.00  0.00    +0.132 C 
ATOM      5  C   UNL     1      -8.422 -42.176  29.406  0.00  0.00    +0.235 C 
ATOM      6  O   UNL     1      -7.967 -41.025  29.244  0.00  0.00    -0.274 OA
ATOM      7  S   UNL     1      -8.921 -45.638  29.751  0.00  0.00    -0.101 S 
ATOM      8  C   UNL     1      -7.823 -45.815  31.132  0.00  0.00    +0.088 C 
ATOM      9  C   UNL     1      -7.984 -44.707  32.098  0.00  0.00    +0.007 C 
ATOM     10  C   UNL     1      -8.362 -43.470  31.796  0.00  0.00    +0.128 C 
BRANCH  10  11
ATOM     11  C   UNL     1      -8.457 -42.456  32.851  0.00  0.00    +0.352 C 
ATOM     12  O   UNL     1      -7.457 -42.260  33.614  0.00  0.00    -0.244 OA
BRANCH  11  13
ATOM     13  O   UNL     1      -9.569 -41.701  33.064  0.00  0.00    -0.476 OA
ATOM     14  H   UNL     1     -10.325 -41.817  32.522  0.00  0.00    +0.295 HD
ENDBRANCH  11  13
ENDBRANCH  10  11
ENDBRANCH   1   3
BRANCH   1  15
ATOM     15  N   UNL     1     -11.368 -42.640  30.437  0.00  0.00    -0.210 N 
ATOM     16  C   UNL     1     -11.985 -42.621  31.708  0.00  0.00    +0.412 C 
ATOM     17  O   UNL     1     -12.109 -43.697  32.309  0.00  0.00    -0.225 OA
ATOM     18  H   UNL     1     -11.262 -41.792  29.948  0.00  0.00    +0.173 HD
BRANCH  16  19
ATOM     19  O   UNL     1     -12.464 -41.457  32.324  0.00  0.00    -0.465 OA
ATOM     20  H   UNL     1     -12.383 -40.630  31.891  0.00  0.00    +0.297 HD
ENDBRANCH  16  19
ENDBRANCH   1  15
BRANCH   1  21
ATOM     21  C   UNL     1     -11.779 -44.833  29.646  0.00  0.00    +0.120 C 
ATOM     22  C   UNL     1     -11.194 -46.059  29.018  0.00  0.00    +0.026 C 
BRANCH  21  23
ATOM     23  C   UNL     1     -12.982 -44.482  28.823  0.00  0.00    +0.099 C 
ATOM     24  N   UNL     1     -13.528 -43.332  28.920  0.00  0.00    -0.182 NA
BRANCH  24  25
ATOM     25  N   UNL     1     -14.641 -42.946  28.186  0.00  0.00    -0.218 N 
ATOM     26  H   UNL     1     -15.507 -42.861  28.647  0.00  0.00    +0.176 HD
BRANCH  25  27
ATOM     27  C   UNL     1     -14.577 -42.670  26.797  0.00  0.00    +0.147 C 
ATOM     28  S   UNL     1     -13.187 -42.118  26.154  0.00  0.00    -0.017 S 
BRANCH  27  29
ATOM     29  N   UNL     1     -15.683 -42.854  25.927  0.00  0.00    -0.339 N 
ATOM     30  H   UNL     1     -16.539 -43.186  26.282  0.00  0.00    +0.144 HD
ATOM     31  H   UNL     1     -15.594 -42.649  24.968  0.00  0.00    +0.144 HD
ENDBRANCH  27  29
ENDBRANCH  25  27
ENDBRANCH  24  25
BRANCH  23  32
ATOM     32  C   UNL     1     -13.494 -45.461  27.903  0.00  0.00    +0.060 C 
ATOM     33  S   UNL     1     -12.713 -45.944  26.536  0.00  0.00    -0.049 S 
ENDBRANCH  23  32
ENDBRANCH  21  23
ENDBRANCH   1  21
TORSDOF 11
