MODEL 1
REMARK VINA RESULT:    -6.762      0.000      0.000
REMARK INTER + INTRA:         -12.656
REMARK INTER:                 -11.308
REMARK INTRA:                  -1.348
REMARK UNBOUND:                -1.348
REMARK  Name = =
REMARK  13 active torsions:
REMARK  status: ('A' for Active; 'I' for Inactive)
REMARK    1  A    between atoms: S_1  and  C_4
REMARK    2  A    between atoms: S_1  and  C_22
REMARK    3  A    between atoms: N_2  and  C_7
REMARK    4  A    between atoms: C_7  and  C_15
REMARK    5  A    between atoms: C_15  and  C_16
REMARK    6  A    between atoms: N_24  and  S_25
REMARK    7  A    between atoms: S_25  and  P_26
REMARK    8  A    between atoms: P_26  and  O_27
REMARK    9  A    between atoms: P_26  and  O_28
REMARK   10  A    between atoms: P_26  and  O_29
REMARK   11  A    between atoms: O_29  and  N_30
REMARK   12  A    between atoms: N_30  and  N_31
REMARK   13  A    between atoms: C_32  and  O_34
REMARK                            x       y       z     vdW  Elec       q    Type
REMARK                         _______ _______ _______ _____ _____    ______ ____
ROOT
ATOM      1  S   UNL     1      59.068 162.921  35.437  0.00  0.00    +0.010 S 
ENDROOT
BRANCH   1   4
ATOM      2  N   UNL     1      59.451 161.219  38.911  0.00  0.00    -0.187 N 
ATOM      3  N   UNL     1      59.621 162.234  38.094  0.00  0.00    -0.150 NA
ATOM      4  C   UNL     1      59.122 161.907  36.883  0.00  0.00    +0.216 C 
ATOM      5  N   UNL     1      58.650 160.670  36.993  0.00  0.00    -0.200 NA
ATOM      6  C   UNL     1      58.852 160.215  38.287  0.00  0.00    +0.187 C 
BRANCH   2   7
ATOM      7  C   UNL     1      59.814 161.214  40.366  0.00  0.00    +0.132 C 
ATOM      8  C   UNL     1      60.161 162.617  40.709  0.00  0.00    +0.053 C 
ATOM      9  C   UNL     1      59.578 163.206  41.942  0.00  0.00    -0.028 C 
ATOM     10  C   UNL     1      58.882 162.350  42.916  0.00  0.00    -0.026 C 
ATOM     11  C   UNL     1      58.734 160.900  42.616  0.00  0.00    +0.049 C 
ATOM     12  C   UNL     1      58.636 160.766  41.112  0.00  0.00    -0.019 C 
ATOM     13  C   UNL     1      57.517 160.306  40.665  0.00  0.00    -0.007 C 
BRANCH   7  15
ATOM     14  O   UNL     1      60.636 158.980  40.510  0.00  0.00    -0.216 OA
ATOM     15  C   UNL     1      60.961 160.250  40.354  0.00  0.00    +0.196 C 
BRANCH  15  16
ATOM     16  C   UNL     1      62.365 160.454  40.212  0.00  0.00    +0.010 C 
ATOM     17  C   UNL     1      62.991 160.692  39.039  0.00  0.00    -0.002 C 
ATOM     18  C   UNL     1      64.360 160.923  38.898  0.00  0.00    -0.000 C 
ATOM     19  C   UNL     1      65.145 160.912  40.024  0.00  0.00    -0.000 C 
ATOM     20  C   UNL     1      64.520 160.669  41.237  0.00  0.00    -0.000 C 
ATOM     21  C   UNL     1      63.170 160.441  41.361  0.00  0.00    -0.002 C 
ENDBRANCH  15  16
ENDBRANCH   7  15
ENDBRANCH   2   7
ENDBRANCH   1   4
BRANCH   1  22
ATOM     22  C   UNL     1      60.121 164.341  35.515  0.00  0.00    +0.288 C 
ATOM     23  O   UNL     1      59.753 165.393  34.886  0.00  0.00    -0.262 OA
ATOM     24  N   UNL     1      61.353 164.417  36.217  0.00  0.00    -0.253 N 
ATOM     25  H   UNL     1      61.665 163.626  36.712  0.00  0.00    +0.163 HD
BRANCH  24  26
ATOM     26  S   UNL     1      62.340 165.868  36.236  0.00  0.00    -0.043 S 
ATOM     27  H   UNL     1      63.164 165.840  37.316  0.00  0.00    +0.122 HD
BRANCH  26  28
ATOM     28  P   UNL     1      63.382 165.951  34.647  0.00  0.00    +0.314 P 
BRANCH  28  29
ATOM     29  O   UNL     1      64.540 164.714  34.702  0.00  0.00    -0.326 OA
ATOM     30  H   UNL     1      64.564 164.332  35.593  0.00  0.00    +0.219 HD
ENDBRANCH  28  29
BRANCH  28  31
ATOM     31  O   UNL     1      62.379 165.624  33.331  0.00  0.00    -0.326 OA
ATOM     32  H   UNL     1      61.973 166.449  33.022  0.00  0.00    +0.219 HD
ENDBRANCH  28  31
BRANCH  28  33
ATOM     33  O   UNL     1      64.165 167.427  34.548  0.00  0.00    -0.204 OA
BRANCH  33  34
ATOM     34  N   UNL     1      63.354 168.485  34.657  0.00  0.00    -0.107 NA
ATOM     35  H   UNL     1      63.931 169.325  34.674  0.00  0.00    +0.178 HD
BRANCH  34  36
ATOM     36  N   UNL     1      62.425 168.624  33.640  0.00  0.00    -0.193 N 
ATOM     37  C   UNL     1      61.033 168.863  33.927  0.00  0.00    +0.413 C 
ATOM     38  O   UNL     1      60.633 168.951  35.113  0.00  0.00    -0.225 OA
ATOM     39  H   UNL     1      62.721 168.559  32.703  0.00  0.00    +0.175 HD
BRANCH  37  40
ATOM     40  O   UNL     1      60.143 168.995  32.868  0.00  0.00    -0.465 OA
ATOM     41  H   UNL     1      60.395 169.469  32.101  0.00  0.00    +0.297 HD
ENDBRANCH  37  40
ENDBRANCH  34  36
ENDBRANCH  33  34
ENDBRANCH  28  33
ENDBRANCH  26  28
ENDBRANCH  24  26
ENDBRANCH   1  22
TORSDOF 13
ENDMDL
