MODEL 1
REMARK VINA RESULT:    -7.756      0.000      0.000
REMARK INTER + INTRA:          -8.386
REMARK INTER:                  -9.570
REMARK INTRA:                   1.184
REMARK UNBOUND:                 1.184
REMARK  Name = =
REMARK  4 active torsions:
REMARK  status: ('A' for Active; 'I' for Inactive)
REMARK    1  A    between atoms: C_1  and  C_22
REMARK    2  A    between atoms: C_2  and  C_11
REMARK    3  A    between atoms: C_11  and  N_17
REMARK    4  A    between atoms: N_24  and  C_25
REMARK                            x       y       z     vdW  Elec       q    Type
REMARK                         _______ _______ _______ _____ _____    ______ ____
ROOT
ATOM      1  C   UNL     1      52.367 163.363  41.448  0.00  0.00    +0.053 C 
ATOM      2  C   UNL     1      51.060 163.059  41.767  0.00  0.00    +0.016 C 
ATOM      3  C   UNL     1      50.854 161.757  42.183  0.00  0.00    -0.001 C 
ATOM      4  C   UNL     1      51.874 160.825  42.276  0.00  0.00    -0.000 C 
ATOM      5  C   UNL     1      53.141 161.170  41.950  0.00  0.00    +0.000 C 
ATOM      6  C   UNL     1      53.391 162.424  41.540  0.00  0.00    +0.004 C 
ATOM      7  C   UNL     1      51.655 159.541  42.689  0.00  0.00    -0.000 C 
ATOM      8  C   UNL     1      50.395 159.121  43.034  0.00  0.00    -0.000 C 
ATOM      9  C   UNL     1      49.359 160.003  42.960  0.00  0.00    -0.000 C 
ATOM     10  C   UNL     1      49.616 161.303  42.534  0.00  0.00    -0.000 C 
ENDROOT
BRANCH   2  11
ATOM     11  C   UNL     1      50.045 164.035  41.602  0.00  0.00    +0.168 C 
ATOM     12  N   UNL     1      49.927 165.109  40.765  0.00  0.00    -0.255 N 
ATOM     13  C   UNL     1      50.226 166.330  41.479  0.00  0.00    +0.403 C 
ATOM     14  O   UNL     1      50.650 167.402  41.036  0.00  0.00    -0.226 OA
ATOM     15  O   UNL     1      49.944 166.081  42.803  0.00  0.00    -0.431 OA
ATOM     16  C   UNL     1      49.840 164.679  43.003  0.00  0.00    +0.248 C 
ATOM     17  H   UNL     1      49.675 165.059  39.815  0.00  0.00    +0.154 HD
BRANCH  11  18
ATOM     18  N   UNL     1      48.722 163.341  41.364  0.00  0.00    -0.255 NA
ATOM     19  C   UNL     1      47.764 163.834  42.350  0.00  0.00    +0.074 C 
ATOM     20  C   UNL     1      46.418 163.719  41.632  0.00  0.00    +0.019 C 
ATOM     21  C   UNL     1      46.809 164.388  40.332  0.00  0.00    +0.019 C 
ATOM     22  C   UNL     1      48.178 163.811  40.103  0.00  0.00    +0.074 C 
ENDBRANCH  11  18
ENDBRANCH   2  11
BRANCH   1  23
ATOM     23  C   UNL     1      52.861 164.655  41.047  0.00  0.00    +0.257 C 
ATOM     24  O   UNL     1      52.843 165.042  39.842  0.00  0.00    -0.269 OA
ATOM     25  N   UNL     1      53.406 165.558  41.979  0.00  0.00    -0.219 N 
ATOM     26  H   UNL     1      53.462 165.312  42.930  0.00  0.00    +0.167 HD
BRANCH  25  27
ATOM     27  C   UNL     1      53.871 166.814  41.544  0.00  0.00    +0.173 C 
ATOM     28  N   UNL     1      54.253 167.858  41.175  0.00  0.00    -0.174 NA
ENDBRANCH  25  27
ENDBRANCH   1  23
TORSDOF 4
ENDMDL
