MODEL 1
REMARK VINA RESULT:   -10.073      0.000      0.000
REMARK INTER + INTRA:         -13.793
REMARK INTER:                 -13.312
REMARK INTRA:                  -0.482
REMARK UNBOUND:                -0.482
REMARK  Name = =
REMARK  6 active torsions:
REMARK  status: ('A' for Active; 'I' for Inactive)
REMARK    1  A    between atoms: N_1  and  C_10
REMARK    2  A    between atoms: C_4  and  N_15
REMARK    3  A    between atoms: C_5  and  O_11
REMARK    4  A    between atoms: O_11  and  C_13
REMARK    5  A    between atoms: C_16  and  C_18
REMARK    6  A    between atoms: C_19  and  O_24
REMARK                            x       y       z     vdW  Elec       q    Type
REMARK                         _______ _______ _______ _____ _____    ______ ____
ROOT
ATOM      1  N   UNL     1      52.677 154.332  27.231  0.00  0.00    -0.291 N 
ATOM      2  C   UNL     1      51.659 153.307  27.222  0.00  0.00    +0.096 C 
ATOM      3  C   UNL     1      51.884 153.058  28.686  0.00  0.00    +0.062 C 
ATOM      4  C   UNL     1      52.521 154.429  28.658  0.00  0.00    +0.151 C 
ENDROOT
BRANCH   1  10
ATOM      5  C   UNL     1      54.349 154.153  25.472  0.00  0.00    +0.163 C 
ATOM      6  C   UNL     1      55.110 154.676  24.458  0.00  0.00    +0.039 C 
ATOM      7  C   UNL     1      54.993 156.005  24.118  0.00  0.00    +0.003 C 
ATOM      8  C   UNL     1      54.106 156.780  24.813  0.00  0.00    +0.001 C 
ATOM      9  C   UNL     1      53.350 156.239  25.828  0.00  0.00    +0.018 C 
ATOM     10  C   UNL     1      53.441 154.913  26.194  0.00  0.00    +0.084 C 
BRANCH   5  11
ATOM     11  O   UNL     1      54.465 152.814  25.816  0.00  0.00    -0.409 OA
BRANCH  11  13
ATOM     12  N   UNL     1      54.086 151.995  23.546  0.00  0.00    -0.295 N 
ATOM     13  C   UNL     1      54.038 151.816  24.949  0.00  0.00    +0.403 C 
ATOM     14  O   UNL     1      53.595 150.729  25.411  0.00  0.00    -0.226 OA
ATOM     15  H   UNL     1      54.428 152.837  23.168  0.00  0.00    +0.148 HD
ATOM     16  H   UNL     1      53.777 151.277  22.948  0.00  0.00    +0.148 HD
ENDBRANCH  11  13
ENDBRANCH   5  11
ENDBRANCH   1  10
BRANCH   4  17
ATOM     17  N   UNL     1      51.514 155.416  29.086  0.00  0.00    -0.287 N 
ATOM     18  C   UNL     1      51.857 156.749  29.383  0.00  0.00    +0.250 C 
ATOM     19  O   UNL     1      53.106 157.009  29.245  0.00  0.00    -0.270 OA
ATOM     20  H   UNL     1      50.574 155.135  29.167  0.00  0.00    +0.151 HD
BRANCH  18  21
ATOM     21  C   UNL     1      50.960 157.808  29.812  0.00  0.00    +0.087 C 
ATOM     22  C   UNL     1      51.323 159.097  30.066  0.00  0.00    +0.138 C 
ATOM     23  C   UNL     1      50.375 160.002  30.468  0.00  0.00    +0.037 C 
ATOM     24  C   UNL     1      49.048 159.666  30.628  0.00  0.00    +0.003 C 
ATOM     25  C   UNL     1      48.686 158.354  30.368  0.00  0.00    +0.000 C 
ATOM     26  C   UNL     1      49.610 157.443  29.971  0.00  0.00    +0.008 C 
BRANCH  22  27
ATOM     27  O   UNL     1      52.635 159.496  29.924  0.00  0.00    -0.505 OA
ATOM     28  H   UNL     1      53.292 159.158  30.500  0.00  0.00    +0.292 HD
ENDBRANCH  22  27
ENDBRANCH  18  21
ENDBRANCH   4  17
TORSDOF 6
ENDMDL
