REMARK  Name = =
REMARK  0 active torsions:
REMARK  status: ('A' for Active; 'I' for Inactive)
REMARK                            x       y       z     vdW  Elec       q    Type
REMARK                         _______ _______ _______ _____ _____    ______ ____
ROOT
ATOM      1  C   UNL     1      51.762 155.420  29.276  0.00  0.00    +0.000 C 
ATOM      2  C   UNL     1      52.375 156.463  28.329  0.00  0.00    +0.000 C 
ATOM      3  C   UNL     1      52.458 157.724  29.132  0.00  0.00    +0.000 C 
ATOM      4  C   UNL     1      51.191 158.158  29.757  0.00  0.00    +0.000 C 
ATOM      5  C   UNL     1      50.223 157.109  30.112  0.00  0.00    +0.000 C 
ATOM      6  C   UNL     1      50.299 155.840  29.351  0.00  0.00    +0.000 C 
ENDROOT
TORSDOF 0
