REMARK  Name = =
REMARK  1 active torsions:
REMARK  status: ('A' for Active; 'I' for Inactive)
REMARK    1  A    between atoms: C_1  and  C_17
REMARK                            x       y       z     vdW  Elec       q    Type
REMARK                         _______ _______ _______ _____ _____    ______ ____
ROOT
ATOM      1  C   UNL     1      60.792 164.470  37.579  0.00  0.00    -0.003 C 
ATOM      2  C   UNL     1      59.670 164.542  38.383  0.00  0.00    +0.096 C 
ATOM      3  N   UNL     1      59.359 163.579  39.282  0.00  0.00    -0.229 NA
ATOM      4  C   UNL     1      60.109 162.485  39.461  0.00  0.00    +0.135 C 
ATOM      5  C   UNL     1      61.256 162.368  38.668  0.00  0.00    +0.070 C 
ATOM      6  C   UNL     1      61.585 163.338  37.751  0.00  0.00    +0.003 C 
ATOM      7  C   UNL     1      62.018 161.230  38.867  0.00  0.00    +0.200 C 
ATOM      8  O   UNL     1      63.069 161.097  38.159  0.00  0.00    -0.286 OA
ATOM      9  C   UNL     1      61.682 160.260  39.791  0.00  0.00    +0.058 C 
ATOM     10  C   UNL     1      60.537 160.423  40.550  0.00  0.00    +0.066 C 
ATOM     11  N   UNL     1      59.801 161.529  40.351  0.00  0.00    -0.297 N 
ATOM     12  H   UNL     1      58.986 161.645  40.891  0.00  0.00    +0.154 HD
ENDROOT
BRANCH   1  18
ATOM     13  C   UNL     1      60.589 165.132  35.243  0.00  0.00    +0.004 C 
ATOM     14  C   UNL     1      60.652 166.239  34.236  0.00  0.00    +0.000 C 
ATOM     15  C   UNL     1      60.164 167.552  34.754  0.00  0.00    +0.000 C 
ATOM     16  C   UNL     1      60.767 167.937  36.068  0.00  0.00    +0.000 C 
ATOM     17  C   UNL     1      60.495 166.809  37.048  0.00  0.00    +0.004 C 
ATOM     18  C   UNL     1      61.138 165.524  36.591  0.00  0.00    +0.024 C 
ENDBRANCH   1  18
TORSDOF 1
