REMARK  Name = =
REMARK  2 active torsions:
REMARK  status: ('A' for Active; 'I' for Inactive)
REMARK    1  A    between atoms: C_1  and  N_28
REMARK    2  A    between atoms: C_6  and  C_7
REMARK                            x       y       z     vdW  Elec       q    Type
REMARK                         _______ _______ _______ _____ _____    ______ ____
ROOT
ATOM      1  C   UNL     1      58.619 162.913  40.352  0.00  0.00    +0.083 C 
ATOM      2  C   UNL     1      57.385 162.934  41.180  0.00  0.00    +0.020 C 
ATOM      3  C   UNL     1      57.218 164.209  41.973  0.00  0.00    +0.002 C 
ATOM      4  C   UNL     1      58.313 165.206  41.643  0.00  0.00    +0.000 C 
ATOM      5  C   UNL     1      59.619 164.555  41.944  0.00  0.00    +0.006 C 
ATOM      6  C   UNL     1      59.867 163.415  41.025  0.00  0.00    +0.042 C 
ENDROOT
BRANCH   6   7
ATOM      7  C   UNL     1      60.901 163.717  39.995  0.00  0.00    -0.002 C 
ATOM      8  C   UNL     1      62.146 163.138  40.067  0.00  0.00    +0.096 C 
ATOM      9  N   UNL     1      63.098 163.390  39.152  0.00  0.00    -0.229 NA
ATOM     10  C   UNL     1      62.893 164.223  38.108  0.00  0.00    +0.135 C 
ATOM     11  C   UNL     1      61.668 164.831  37.984  0.00  0.00    +0.070 C 
ATOM     12  C   UNL     1      60.697 164.567  38.927  0.00  0.00    +0.003 C 
ATOM     13  C   UNL     1      61.412 165.686  36.939  0.00  0.00    +0.200 C 
ATOM     14  O   UNL     1      60.282 166.229  36.848  0.00  0.00    -0.286 OA
ATOM     15  C   UNL     1      62.432 165.901  36.033  0.00  0.00    +0.058 C 
ATOM     16  C   UNL     1      63.666 165.298  36.148  0.00  0.00    +0.066 C 
ATOM     17  N   UNL     1      63.860 164.469  37.191  0.00  0.00    -0.297 N 
ATOM     18  H   UNL     1      64.734 164.027  37.291  0.00  0.00    +0.154 HD
ENDBRANCH   6   7
BRANCH   1  29
ATOM     19  C   UNL     1      58.673 158.143  41.908  0.00  0.00    +0.021 C 
ATOM     20  C   UNL     1      58.544 159.405  42.459  0.00  0.00    +0.100 C 
ATOM     21  N   UNL     1      58.576 160.523  41.725  0.00  0.00    -0.229 NA
ATOM     22  C   UNL     1      58.734 160.469  40.413  0.00  0.00    +0.138 C 
ATOM     23  C   UNL     1      58.868 159.244  39.808  0.00  0.00    +0.071 C 
ATOM     24  C   UNL     1      58.837 158.090  40.549  0.00  0.00    +0.008 C 
ATOM     25  C   UNL     1      59.033 159.161  38.452  0.00  0.00    +0.200 C 
ATOM     26  O   UNL     1      59.153 158.020  37.927  0.00  0.00    -0.286 OA
ATOM     27  C   UNL     1      59.061 160.320  37.732  0.00  0.00    +0.058 C 
ATOM     28  C   UNL     1      58.925 161.510  38.376  0.00  0.00    +0.070 C 
ATOM     29  N   UNL     1      58.758 161.624  39.727  0.00  0.00    -0.273 N 
ENDBRANCH   1  29
TORSDOF 2
