REMARK  Name = =
REMARK  3 active torsions:
REMARK  status: ('A' for Active; 'I' for Inactive)
REMARK    1  A    between atoms: C_1  and  N_12
REMARK    2  A    between atoms: C_1  and  C_38
REMARK    3  A    between atoms: C_31  and  C_39
REMARK                            x       y       z     vdW  Elec       q    Type
REMARK                         _______ _______ _______ _____ _____    ______ ____
ROOT
ATOM      1  C   UNL     1      52.070 154.502  27.757  0.00  0.00    +0.196 C 
ATOM      2  C   UNL     1      51.651 154.775  26.330  0.00  0.00    +0.198 C 
ATOM      3  O   UNL     1      50.639 154.257  25.814  0.00  0.00    -0.289 OA
ATOM      4  C   UNL     1      52.595 155.688  25.731  0.00  0.00    +0.040 C 
ATOM      5  C   UNL     1      53.727 155.646  26.490  0.00  0.00    +0.040 C 
ATOM      6  C   UNL     1      54.787 156.446  26.108  0.00  0.00    +0.003 C 
ATOM      7  C   UNL     1      54.689 157.265  24.981  0.00  0.00    +0.000 C 
ATOM      8  C   UNL     1      53.527 157.284  24.234  0.00  0.00    +0.000 C 
ATOM      9  C   UNL     1      52.466 156.498  24.598  0.00  0.00    +0.003 C 
ATOM     10  C   UNL     1      53.528 154.690  27.606  0.00  0.00    +0.198 C 
ATOM     11  O   UNL     1      54.519 154.229  28.200  0.00  0.00    -0.289 OA
ENDROOT
BRANCH   1  12
ATOM     12  N   UNL     1      51.459 155.473  28.550  0.00  0.00    -0.260 NA
ATOM     13  C   UNL     1      51.493 156.835  28.157  0.00  0.00    +0.063 C 
ATOM     14  C   UNL     1      50.151 157.408  28.654  0.00  0.00    +0.023 C 
ATOM     15  C   UNL     1      50.371 157.596  30.152  0.00  0.00    +0.068 C 
ATOM     16  C   UNL     1      49.195 158.180  30.876  0.00  0.00    +0.226 C 
ATOM     17  O   UNL     1      49.779 159.186  31.757  0.00  0.00    -0.472 OA
ATOM     18  C   UNL     1      51.016 159.569  31.235  0.00  0.00    +0.135 C 
ATOM     19  C   UNL     1      51.382 158.652  30.309  0.00  0.00    +0.011 C 
ATOM     20  C   UNL     1      52.507 158.652  29.571  0.00  0.00    -0.022 C 
ATOM     21  C   UNL     1      53.427 159.689  29.742  0.00  0.00    -0.004 C 
ATOM     22  C   UNL     1      53.110 160.663  30.679  0.00  0.00    +0.003 C 
ATOM     23  C   UNL     1      51.927 160.615  31.419  0.00  0.00    +0.037 C 
ATOM     24  C   UNL     1      52.703 157.543  28.612  0.00  0.00    +0.042 C 
ATOM     25  C   UNL     1      48.371 159.002  29.921  0.00  0.00    +0.191 C 
ATOM     26  O   UNL     1      47.184 159.096  30.087  0.00  0.00    -0.292 OA
ATOM     27  C   UNL     1      49.077 159.664  28.805  0.00  0.00    +0.068 C 
ATOM     28  C   UNL     1      49.868 158.689  27.957  0.00  0.00    +0.010 C 
ATOM     29  C   UNL     1      50.817 156.286  30.719  0.00  0.00    +0.025 C 
ATOM     30  C   UNL     1      50.745 155.146  29.709  0.00  0.00    +0.074 C 
ENDBRANCH   1  12
BRANCH   1  38
ATOM     31  C   UNL     1      53.154 150.637  25.731  0.00  0.00    +0.293 C 
ATOM     32  O   UNL     1      52.788 149.541  26.239  0.00  0.00    -0.266 OA
ATOM     33  N   UNL     1      52.825 151.881  26.304  0.00  0.00    -0.262 N 
ATOM     34  C   UNL     1      52.031 151.940  27.507  0.00  0.00    +0.160 A 
ATOM     35  N   UNL     1      51.592 150.744  28.029  0.00  0.00    -0.175 NA
ATOM     36  S   UNL     1      50.608 151.226  29.503  0.00  0.00    +0.118 S 
ATOM     37  N   UNL     1      50.870 152.870  29.285  0.00  0.00    -0.191 NA
ATOM     38  C   UNL     1      51.706 153.071  28.092  0.00  0.00    +0.128 A 
ATOM     39  H   UNL     1      53.138 152.713  25.882  0.00  0.00    +0.157 HD
BRANCH  31  40
ATOM     40  C   UNL     1      53.953 150.553  24.498  0.00  0.00    +0.292 C 
ATOM     41  O   UNL     1      53.928 151.498  23.664  0.00  0.00    -0.278 OA
ENDBRANCH  31  40
ENDBRANCH   1  38
TORSDOF 3
