MODEL 1
REMARK VINA RESULT:    -8.352      0.000      0.000
REMARK INTER + INTRA:         -11.629
REMARK INTER:                 -10.549
REMARK INTRA:                  -1.080
REMARK UNBOUND:                -1.080
REMARK  Name = =
REMARK  5 active torsions:
REMARK  status: ('A' for Active; 'I' for Inactive)
REMARK    1  A    between atoms: C_1  and  N_24
REMARK    2  A    between atoms: C_4  and  C_31
REMARK    3  A    between atoms: N_24  and  N_26
REMARK    4  A    between atoms: C_27  and  C_29
REMARK    5  A    between atoms: C_31  and  N_32
REMARK                            x       y       z     vdW  Elec       q    Type
REMARK                         _______ _______ _______ _____ _____    ______ ____
ROOT
ATOM      1  C   UNL     1       1.082  -5.690  28.513  0.00  0.00    +0.059 C 
ATOM      2  C   UNL     1       1.891  -4.487  28.463  0.00  0.00    +0.015 C 
ATOM      3  C   UNL     1       1.591  -3.254  29.114  0.00  0.00    +0.003 C 
ATOM      4  C   UNL     1       2.442  -2.239  28.475  0.00  0.00    +0.016 C 
ATOM      5  C   UNL     1       3.128  -2.909  27.274  0.00  0.00    +0.001 C 
ATOM      6  C   UNL     1       3.056  -4.416  27.573  0.00  0.00    +0.001 C 
ATOM      7  C   UNL     1       0.171  -2.902  29.385  0.00  0.00    +0.000 C 
ATOM      8  C   UNL     1      -0.718  -4.131  29.494  0.00  0.00    +0.001 C 
ATOM      9  C   UNL     1      -0.163  -5.409  29.385  0.00  0.00    +0.015 C 
ATOM     10  C   UNL     1       0.158  -6.303  30.489  0.00  0.00    +0.002 C 
ATOM     11  C   UNL     1      -0.061  -7.569  30.522  0.00  0.00    +0.004 C 
ATOM     12  C   UNL     1       1.469  -7.461  30.453  0.00  0.00    +0.002 C 
ATOM     13  C   UNL     1       1.037  -6.409  31.667  0.00  0.00    +0.000 C 
ATOM     14  C   UNL     1       2.150  -5.411  31.790  0.00  0.00    +0.000 C 
ATOM     15  C   UNL     1       2.988  -5.499  33.008  0.00  0.00    +0.000 C 
ATOM     16  C   UNL     1       1.983  -5.416  34.167  0.00  0.00    +0.000 C 
ATOM     17  C   UNL     1       1.407  -6.811  34.126  0.00  0.00    +0.000 C 
ATOM     18  C   UNL     1       0.622  -7.103  32.862  0.00  0.00    +0.004 C 
ATOM     19  C   UNL     1       1.851  -6.775  29.227  0.00  0.00    +0.016 C 
ATOM     20  C   UNL     1      -0.992  -8.692  30.662  0.00  0.00    +0.026 C 
ATOM     21  C   UNL     1      -1.893  -8.819  31.707  0.00  0.00    -0.031 C 
ATOM     22  C   UNL     1      -1.791  -8.014  32.964  0.00  0.00    -0.031 C 
ATOM     23  C   UNL     1      -0.800  -7.153  33.325  0.00  0.00    +0.026 C 
ENDROOT
BRANCH   1  24
ATOM     24  N   UNL     1       0.605  -5.980  27.217  0.00  0.00    -0.220 NA
ATOM     25  H   UNL     1       1.021  -5.274  26.610  0.00  0.00    +0.146 HD
BRANCH  24  27
ATOM     26  I   UNL     1       2.465  -7.488  25.439  0.00  0.00    +0.065 I 
ATOM     27  N   UNL     1       0.777  -7.137  26.587  0.00  0.00    -0.170 N 
ATOM     28  C   UNL     1      -0.158  -8.195  26.670  0.00  0.00    +0.270 C 
ATOM     29  O   UNL     1      -1.203  -7.959  27.408  0.00  0.00    -0.268 OA
BRANCH  28  30
ATOM     30  C   UNL     1      -0.094  -9.474  26.047  0.00  0.00    +0.060 C 
ATOM     31  C   UNL     1       0.278 -10.530  26.780  0.00  0.00    +0.005 C 
ENDBRANCH  28  30
ENDBRANCH  24  27
ENDBRANCH   1  24
BRANCH   4  32
ATOM     32  C   UNL     1       1.799  -0.997  27.973  0.00  0.00    +0.065 C 
BRANCH  32  33
ATOM     33  N   UNL     1       2.208  -0.554  26.682  0.00  0.00    -0.321 NA
ATOM     34  H   UNL     1       2.496  -1.358  26.123  0.00  0.00    +0.119 HD
ATOM     35  H   UNL     1       2.991   0.093  26.776  0.00  0.00    +0.119 HD
ENDBRANCH  32  33
ENDBRANCH   4  32
TORSDOF 5
ENDMDL
