REMARK  Name = =
REMARK  5 active torsions:
REMARK  status: ('A' for Active; 'I' for Inactive)
REMARK    1  A    between atoms: N_6  and  S_7
REMARK    2  A    between atoms: N_6  and  S_13
REMARK    3  A    between atoms: S_7  and  N_10
REMARK    4  A    between atoms: S_13  and  C_14
REMARK    5  A    between atoms: C_14  and  N_16
REMARK                            x       y       z     vdW  Elec       q    Type
REMARK                         _______ _______ _______ _____ _____    ______ ____
ROOT
ATOM      1  C   UNL     1      52.253 155.073  28.913  0.00  0.00    +0.343 C 
ATOM      2  O   UNL     1      51.661 154.033  29.418  0.00  0.00    -0.399 OA
ATOM      3  C   UNL     1      52.069 152.952  28.782  0.00  0.00    +0.307 C 
ATOM      4  N   UNL     1      52.960 153.325  27.832  0.00  0.00    -0.101 NA
ATOM      5  N   UNL     1      53.054 154.641  27.936  0.00  0.00    -0.090 NA
ATOM      6  N   UNL     1      52.068 156.436  29.338  0.00  0.00    -0.074 N 
ENDROOT
BRANCH   6   7
ATOM      7  S   UNL     1      52.934 157.726  28.562  0.00  0.00    +0.142 S 
ATOM      8  O   UNL     1      51.954 158.745  28.126  0.00  0.00    -0.134 OA
ATOM      9  O   UNL     1      53.614 157.107  27.350  0.00  0.00    -0.134 OA
BRANCH   7  10
ATOM     10  N   UNL     1      54.131 158.338  29.631  0.00  0.00    -0.164 N 
ATOM     11  C   UNL     1      55.367 158.794  29.105  0.00  0.00    +0.320 C 
ATOM     12  O   UNL     1      55.586 158.753  27.869  0.00  0.00    -0.263 OA
ATOM     13  H   UNL     1      53.961 158.372  30.600  0.00  0.00    +0.178 HD
ENDBRANCH   7  10
ENDBRANCH   6   7
BRANCH   6  14
ATOM     14  S   UNL     1      50.966 156.810  30.647  0.00  0.00    +0.030 S 
BRANCH  14  15
ATOM     15  C   UNL     1      49.333 157.048  29.983  0.00  0.00    +0.124 C 
ATOM     16  S   UNL     1      48.604 155.851  29.159  0.00  0.00    -0.027 S 
BRANCH  15  17
ATOM     17  N   UNL     1      48.633 158.272  30.153  0.00  0.00    -0.346 N 
ATOM     18  H   UNL     1      49.051 159.013  30.648  0.00  0.00    +0.143 HD
ATOM     19  H   UNL     1      47.730 158.379  29.776  0.00  0.00    +0.143 HD
ENDBRANCH  15  17
ENDBRANCH  14  15
ENDBRANCH   6  14
TORSDOF 5
