MODEL 1
REMARK VINA RESULT:    -7.799      0.000      0.000
REMARK INTER + INTRA:          -8.755
REMARK INTER:                  -9.167
REMARK INTRA:                   0.413
REMARK UNBOUND:                 0.413
REMARK  Name = =
REMARK  3 active torsions:
REMARK  status: ('A' for Active; 'I' for Inactive)
REMARK    1  A    between atoms: N_15  and  N_16
REMARK    2  A    between atoms: N_16  and  O_19
REMARK    3  A    between atoms: O_19  and  C_20
REMARK                            x       y       z     vdW  Elec       q    Type
REMARK                         _______ _______ _______ _____ _____    ______ ____
ROOT
ATOM      1 CL   UNL     1      50.916 167.262  40.474  0.00  0.00    -0.082 Cl
ATOM      2  C   UNL     1      51.376 165.629  40.933  0.00  0.00    +0.059 C 
ATOM      3  C   UNL     1      50.434 164.647  41.157  0.00  0.00    +0.028 C 
ATOM      4  C   UNL     1      50.816 163.353  41.521  0.00  0.00    +0.080 C 
ATOM      5  C   UNL     1      52.170 163.142  41.635  0.00  0.00    +0.045 C 
ATOM      6  C   UNL     1      53.099 164.126  41.411  0.00  0.00    +0.009 C 
ATOM      7  C   UNL     1      52.724 165.373  41.060  0.00  0.00    +0.012 C 
ATOM      8  S   UNL     1      52.731 161.506  42.093  0.00  0.00    -0.084 S 
ATOM      9  C   UNL     1      51.279 160.523  42.301  0.00  0.00    +0.045 C 
ATOM     10  C   UNL     1      50.032 161.056  42.106  0.00  0.00    +0.079 C 
ATOM     11  C   UNL     1      48.960 160.212  42.292  0.00  0.00    +0.017 C 
ATOM     12  C   UNL     1      49.083 158.888  42.655  0.00  0.00    +0.001 C 
ATOM     13  C   UNL     1      50.338 158.375  42.845  0.00  0.00    +0.001 C 
ATOM     14  C   UNL     1      51.424 159.215  42.661  0.00  0.00    +0.008 C 
ATOM     15  N   UNL     1      49.799 162.403  41.735  0.00  0.00    -0.181 N 
ENDROOT
BRANCH  15  16
ATOM     16  N   UNL     1      48.452 162.795  41.577  0.00  0.00    -0.026 N 
ATOM     17  C   UNL     1      47.705 163.305  42.671  0.00  0.00    +0.357 C 
ATOM     18  O   UNL     1      46.507 163.680  42.624  0.00  0.00    -0.260 OA
BRANCH  16  19
ATOM     19  O   UNL     1      47.970 162.641  40.307  0.00  0.00    -0.309 OA
BRANCH  19  20
ATOM     20  C   UNL     1      47.366 163.627  39.573  0.00  0.00    +0.422 C 
ATOM     21  O   UNL     1      47.651 164.812  39.848  0.00  0.00    -0.225 OA
ATOM     22  N   UNL     1      46.448 163.261  38.542  0.00  0.00    -0.293 N 
ATOM     23  H   UNL     1      46.258 162.312  38.366  0.00  0.00    +0.148 HD
ATOM     24  H   UNL     1      46.006 163.959  38.006  0.00  0.00    +0.148 HD
ENDBRANCH  19  20
ENDBRANCH  16  19
ENDBRANCH  15  16
TORSDOF 3
ENDMDL
