REMARK  Name = =
REMARK  6 active torsions:
REMARK  status: ('A' for Active; 'I' for Inactive)
REMARK    1  A    between atoms: O_1  and  C_2
REMARK    2  A    between atoms: O_1  and  O_10
REMARK    3  A    between atoms: C_2  and  C_4
REMARK    4  A    between atoms: O_10  and  P_12
REMARK    5  A    between atoms: P_12  and  O_13
REMARK    6  A    between atoms: P_12  and  O_14
REMARK                            x       y       z     vdW  Elec       q    Type
REMARK                         _______ _______ _______ _____ _____    ______ ____
ROOT
ATOM      1  O   UNL     1     -14.790 -41.880  26.670  0.00  0.00    -0.284 OA
ENDROOT
BRANCH   1   2
ATOM      2  C   UNL     1     -15.418 -41.719  25.445  0.00  0.00    +0.375 C 
ATOM      3  O   UNL     1     -14.729 -41.425  24.458  0.00  0.00    -0.242 OA
BRANCH   2   4
ATOM      4  C   UNL     1     -16.862 -41.899  25.347  0.00  0.00    +0.079 C 
ATOM      5  C   UNL     1     -17.455 -42.408  24.212  0.00  0.00    +0.007 C 
ATOM      6  C   UNL     1     -18.828 -42.562  24.160  0.00  0.00    +0.000 C 
ATOM      7  C   UNL     1     -19.660 -42.223  25.217  0.00  0.00    +0.000 C 
ATOM      8  C   UNL     1     -19.057 -41.715  26.347  0.00  0.00    +0.000 C 
ATOM      9  C   UNL     1     -17.688 -41.559  26.404  0.00  0.00    +0.007 C 
ENDBRANCH   2   4
ENDBRANCH   1   2
BRANCH   1  10
ATOM     10  O   UNL     1     -13.498 -41.636  26.871  0.00  0.00    -0.099 OA
BRANCH  10  12
ATOM     11  S   UNL     1     -13.196 -44.417  27.028  0.00  0.00    +0.025 S 
ATOM     12  P   UNL     1     -12.795 -42.897  27.739  0.00  0.00    +0.343 P 
BRANCH  12  13
ATOM     13  O   UNL     1     -11.106 -42.644  27.701  0.00  0.00    -0.325 OA
ATOM     14  H   UNL     1     -10.802 -42.628  26.780  0.00  0.00    +0.220 HD
ENDBRANCH  12  13
BRANCH  12  15
ATOM     15  O   UNL     1     -13.316 -42.924  29.342  0.00  0.00    -0.325 OA
ATOM     16  H   UNL     1     -14.275 -43.068  29.368  0.00  0.00    +0.220 HD
ENDBRANCH  12  15
ENDBRANCH  10  12
ENDBRANCH   1  10
TORSDOF 6
