MODEL 1
REMARK VINA RESULT:    -7.765      0.000      0.000
REMARK INTER + INTRA:         -11.926
REMARK INTER:                 -10.942
REMARK INTRA:                  -0.984
REMARK UNBOUND:                -0.984
REMARK  Name = =
REMARK  7 active torsions:
REMARK  status: ('A' for Active; 'I' for Inactive)
REMARK    1  A    between atoms: C_1  and  N_15
REMARK    2  A    between atoms: C_5  and  N_6
REMARK    3  A    between atoms: C_11  and  C_12
REMARK    4  A    between atoms: C_12  and  C_13
REMARK    5  A    between atoms: N_15  and  C_16
REMARK    6  A    between atoms: C_16  and  C_19
REMARK    7  A    between atoms: S_17  and  C_24
REMARK                            x       y       z     vdW  Elec       q    Type
REMARK                         _______ _______ _______ _____ _____    ______ ____
ROOT
ATOM      1  C   UNL     1      52.825 155.359  28.147  0.00  0.00    +0.069 C 
ATOM      2  C   UNL     1      52.972 154.053  28.828  0.00  0.00    +0.017 C 
ATOM      3  C   UNL     1      51.714 153.335  28.318  0.00  0.00    +0.003 C 
ATOM      4  C   UNL     1      51.517 153.909  26.906  0.00  0.00    +0.017 C 
ATOM      5  C   UNL     1      52.590 154.955  26.718  0.00  0.00    +0.072 C 
ENDROOT
BRANCH   5   6
ATOM      6  N   UNL     1      53.734 154.335  26.101  0.00  0.00    -0.274 NA
ATOM      7  C   UNL     1      54.500 155.275  25.310  0.00  0.00    +0.072 C 
ATOM      8  C   UNL     1      55.468 154.671  24.355  0.00  0.00    +0.017 C 
ATOM      9  C   UNL     1      54.729 153.852  23.356  0.00  0.00    +0.003 C 
ATOM     10  C   UNL     1      53.334 153.521  23.830  0.00  0.00    +0.016 C 
ATOM     11  C   UNL     1      53.304 153.201  25.311  0.00  0.00    +0.057 C 
BRANCH  11  12
ATOM     12  C   UNL     1      54.114 152.007  25.667  0.00  0.00    +0.016 C 
BRANCH  12  13
ATOM     13  C   UNL     1      53.395 150.698  25.424  0.00  0.00    +0.001 C 
ATOM     14  C   UNL     1      54.299 149.799  24.651  0.00  0.00    +0.000 C 
ENDBRANCH  12  13
ENDBRANCH  11  12
ENDBRANCH   5   6
BRANCH   1  15
ATOM     15  N   UNL     1      51.656 156.053  28.617  0.00  0.00    -0.297 NA
ATOM     16  H   UNL     1      51.248 155.500  29.372  0.00  0.00    +0.123 HD
BRANCH  15  17
ATOM     17  C   UNL     1      51.868 157.374  29.111  0.00  0.00    +0.079 C 
BRANCH  17  20
ATOM     18  S   UNL     1      50.077 159.247  30.073  0.00  0.00    -0.174 S 
ATOM     19  C   UNL     1      49.451 157.599  29.953  0.00  0.00    +0.054 C 
ATOM     20  C   UNL     1      50.908 157.787  30.192  0.00  0.00    +0.060 C 
ATOM     21  H   UNL     1      50.239 160.394  29.360  0.00  0.00    +0.091 HD
BRANCH  18  26
ATOM     22  O   UNL     1      49.795 160.027  32.710  0.00  0.00    -0.446 OA
ATOM     23  C   UNL     1      49.205 160.936  33.445  0.00  0.00    +0.180 C 
ATOM     24  C   UNL     1      48.485 161.784  32.632  0.00  0.00    +0.044 C 
ATOM     25  C   UNL     1      48.701 161.295  31.340  0.00  0.00    +0.046 C 
ATOM     26  C   UNL     1      49.524 160.199  31.435  0.00  0.00    +0.152 C 
ENDBRANCH  18  26
ENDBRANCH  17  20
ENDBRANCH  15  17
ENDBRANCH   1  15
TORSDOF 7
ENDMDL
