REMARK  Name = =
REMARK  7 active torsions:
REMARK  status: ('A' for Active; 'I' for Inactive)
REMARK    1  A    between atoms: C_1  and  N_15
REMARK    2  A    between atoms: C_5  and  N_6
REMARK    3  A    between atoms: C_11  and  C_12
REMARK    4  A    between atoms: C_12  and  C_13
REMARK    5  A    between atoms: N_15  and  C_16
REMARK    6  A    between atoms: C_16  and  C_19
REMARK    7  A    between atoms: S_17  and  C_24
REMARK                            x       y       z     vdW  Elec       q    Type
REMARK                         _______ _______ _______ _____ _____    ______ ____
ROOT
ATOM      1  C   UNL     1      53.164 157.165  27.624  0.00  0.00    +0.069 C 
ATOM      2  C   UNL     1      53.892 156.538  28.751  0.00  0.00    +0.017 C 
ATOM      3  C   UNL     1      52.783 155.647  29.331  0.00  0.00    +0.003 C 
ATOM      4  C   UNL     1      51.956 155.249  28.098  0.00  0.00    +0.017 C 
ATOM      5  C   UNL     1      52.565 155.977  26.924  0.00  0.00    +0.072 C 
ENDROOT
BRANCH   5   6
ATOM      6  N   UNL     1      53.545 155.120  26.308  0.00  0.00    -0.274 NA
ATOM      7  C   UNL     1      54.226 155.775  25.211  0.00  0.00    +0.072 C 
ATOM      8  C   UNL     1      54.977 154.876  24.293  0.00  0.00    +0.017 C 
ATOM      9  C   UNL     1      54.027 153.935  23.639  0.00  0.00    +0.003 C 
ATOM     10  C   UNL     1      52.713 153.865  24.381  0.00  0.00    +0.016 C 
ATOM     11  C   UNL     1      52.913 153.889  25.883  0.00  0.00    +0.057 C 
BRANCH  11  12
ATOM     12  C   UNL     1      53.691 152.727  26.387  0.00  0.00    +0.016 C 
BRANCH  12  13
ATOM     13  C   UNL     1      53.268 151.409  25.776  0.00  0.00    +0.001 C 
ATOM     14  C   UNL     1      51.939 151.033  26.338  0.00  0.00    +0.000 C 
ENDBRANCH  12  13
ENDBRANCH  11  12
ENDBRANCH   5   6
BRANCH   1  15
ATOM     15  N   UNL     1      52.090 157.992  28.107  0.00  0.00    -0.297 NA
ATOM     16  H   UNL     1      51.250 157.415  28.157  0.00  0.00    +0.123 HD
BRANCH  15  17
ATOM     17  C   UNL     1      52.287 158.587  29.388  0.00  0.00    +0.079 C 
BRANCH  17  20
ATOM     18  S   UNL     1      50.399 160.407  30.263  0.00  0.00    -0.174 S 
ATOM     19  C   UNL     1      49.754 159.021  29.376  0.00  0.00    +0.054 C 
ATOM     20  C   UNL     1      51.015 158.844  30.148  0.00  0.00    +0.060 C 
ATOM     21  H   UNL     1      50.903 161.658  30.090  0.00  0.00    +0.091 HD
BRANCH  18  26
ATOM     22  O   UNL     1      49.086 160.379  32.696  0.00  0.00    -0.446 OA
ATOM     23  C   UNL     1      48.356 161.144  33.467  0.00  0.00    +0.180 C 
ATOM     24  C   UNL     1      48.184 162.370  32.863  0.00  0.00    +0.044 C 
ATOM     25  C   UNL     1      48.882 162.265  31.656  0.00  0.00    +0.046 C 
ATOM     26  C   UNL     1      49.430 161.007  31.593  0.00  0.00    +0.152 C 
ENDBRANCH  18  26
ENDBRANCH  17  20
ENDBRANCH  15  17
ENDBRANCH   1  15
TORSDOF 7
