REMARK  Name = =
REMARK  0 active torsions:
REMARK  status: ('A' for Active; 'I' for Inactive)
REMARK                            x       y       z     vdW  Elec       q    Type
REMARK                         _______ _______ _______ _____ _____    ______ ____
ROOT
ATOM      1  C   UNL     1     -14.432 -43.260  27.324  0.00  0.00    +0.000 C 
ATOM      2  C   UNL     1     -15.591 -42.310  27.220  0.00  0.00    +0.004 C 
ATOM      3  C   UNL     1     -16.496 -42.741  26.124  0.00  0.00    +0.018 C 
ATOM      4  C   UNL     1     -15.789 -42.399  24.804  0.00  0.00    +0.004 C 
ATOM      5  C   UNL     1     -14.302 -42.457  25.028  0.00  0.00    +0.000 C 
ATOM      6  C   UNL     1     -13.957 -43.626  25.935  0.00  0.00    +0.000 C 
ATOM      7  C   UNL     1     -17.799 -42.076  26.099  0.00  0.00    -0.045 C 
ATOM      8  C   UNL     1     -18.560 -42.113  25.013  0.00  0.00    -0.009 C 
ATOM      9  C   UNL     1     -18.270 -41.352  27.306  0.00  0.00    +0.022 C 
ATOM     10  C   UNL     1     -17.748 -42.129  28.497  0.00  0.00    +0.004 C 
ATOM     11  C   UNL     1     -16.255 -42.041  28.529  0.00  0.00    +0.001 C 
ENDROOT
TORSDOF 0
