REMARK  Name = =
REMARK  2 active torsions:
REMARK  status: ('A' for Active; 'I' for Inactive)
REMARK    1  A    between atoms: C_1  and  C_12
REMARK    2  A    between atoms: C_1  and  C_24
REMARK                            x       y       z     vdW  Elec       q    Type
REMARK                         _______ _______ _______ _____ _____    ______ ____
ROOT
ATOM      1  C   UNL     1     -11.893 -44.075  28.839  0.00  0.00    +0.137 C 
ATOM      2  C   UNL     1     -12.422 -43.625  30.163  0.00  0.00    +0.020 C 
ATOM      3  C   UNL     1     -11.645 -44.152  31.338  0.00  0.00    +0.019 C 
ATOM      4  C   UNL     1     -11.017 -45.465  31.159  0.00  0.00    +0.004 C 
ATOM      5  C   UNL     1     -10.448 -45.751  29.820  0.00  0.00    +0.001 C 
ATOM      6  C   UNL     1     -10.432 -44.487  28.993  0.00  0.00    +0.017 C 
ATOM      7  C   UNL     1     -12.555 -44.011  32.498  0.00  0.00    -0.045 C 
ATOM      8  C   UNL     1     -12.504 -44.862  33.491  0.00  0.00    -0.009 C 
ATOM      9  C   UNL     1     -13.505 -42.869  32.462  0.00  0.00    +0.022 C 
ATOM     10  C   UNL     1     -12.811 -41.750  31.715  0.00  0.00    +0.004 C 
ATOM     11  C   UNL     1     -12.378 -42.100  30.333  0.00  0.00    +0.002 C 
ENDROOT
BRANCH   1  12
ATOM     12  C   UNL     1     -12.018 -43.053  27.782  0.00  0.00    +0.233 C 
ATOM     13  O   UNL     1     -10.944 -42.616  27.241  0.00  0.00    -0.274 OA
ATOM     14  N   UNL     1     -13.261 -42.522  27.330  0.00  0.00    -0.275 N 
ATOM     15  C   UNL     1     -14.516 -42.971  27.876  0.00  0.00    +0.098 C 
ATOM     16  C   UNL     1     -15.665 -42.066  27.442  0.00  0.00    +0.048 C 
ATOM     17  C   UNL     1     -15.663 -41.960  25.949  0.00  0.00    -0.023 C 
ATOM     18  C   UNL     1     -14.429 -41.675  25.388  0.00  0.00    -0.006 C 
ATOM     19  C   UNL     1     -14.330 -41.562  24.009  0.00  0.00    -0.003 C 
ATOM     20  C   UNL     1     -15.453 -41.735  23.244  0.00  0.00    -0.000 C 
ATOM     21  C   UNL     1     -16.685 -42.021  23.821  0.00  0.00    -0.000 C 
ATOM     22  C   UNL     1     -16.802 -42.137  25.192  0.00  0.00    -0.004 C 
ATOM     23  C   UNL     1     -13.279 -41.503  26.296  0.00  0.00    +0.120 C 
ENDBRANCH   1  12
BRANCH   1  24
ATOM     24  C   UNL     1     -12.607 -45.304  28.408  0.00  0.00    +0.227 C 
ATOM     25  O   UNL     1     -13.428 -45.899  29.184  0.00  0.00    -0.275 OA
ATOM     26  N   UNL     1     -12.403 -45.864  27.117  0.00  0.00    -0.328 N 
ATOM     27  H   UNL     1     -11.778 -45.436  26.488  0.00  0.00    +0.145 HD
ATOM     28  H   UNL     1     -12.887 -46.680  26.852  0.00  0.00    +0.145 HD
ENDBRANCH   1  24
TORSDOF 2
