MODEL 1
REMARK VINA RESULT:   -12.085      0.000      0.000
REMARK INTER + INTRA:         -16.798
REMARK INTER:                 -16.677
REMARK INTRA:                  -0.122
REMARK UNBOUND:                -0.122
REMARK  Name = =
REMARK  8 active torsions:
REMARK  status: ('A' for Active; 'I' for Inactive)
REMARK    1  A    between atoms: C_8  and  C_26
REMARK    2  A    between atoms: C_17  and  O_19
REMARK    3  A    between atoms: O_19  and  C_20
REMARK    4  A    between atoms: C_23  and  O_25
REMARK    5  A    between atoms: C_27  and  C_28
REMARK    6  A    between atoms: C_27  and  C_36
REMARK    7  A    between atoms: C_31  and  O_35
REMARK    8  A    between atoms: C_36  and  O_38
REMARK                            x       y       z     vdW  Elec       q    Type
REMARK                         _______ _______ _______ _____ _____    ______ ____
ROOT
ATOM      1  C   UNL     1      49.550 158.905  30.818  0.00  0.00    +0.049 C 
ATOM      2  C   UNL     1      48.684 157.895  30.526  0.00  0.00    +0.099 C 
ATOM      3  N   UNL     1      49.061 156.754  29.901  0.00  0.00    -0.242 NA
ATOM      4  C   UNL     1      50.353 156.610  29.552  0.00  0.00    +0.102 C 
ATOM      5  C   UNL     1      51.247 157.618  29.837  0.00  0.00    +0.133 C 
ATOM      6  N   UNL     1      52.520 157.424  29.469  0.00  0.00    -0.239 NA
ATOM      7  C   UNL     1      52.907 156.301  28.850  0.00  0.00    +0.099 C 
ATOM      8  C   UNL     1      52.020 155.258  28.546  0.00  0.00    +0.021 C 
ATOM      9  C   UNL     1      50.701 155.428  28.914  0.00  0.00    +0.022 C 
ATOM     10  C   UNL     1      50.878 158.794  30.476  0.00  0.00    +0.161 C 
ATOM     11  N   UNL     1      50.064 161.082  31.835  0.00  0.00    -0.197 NA
ATOM     12  C   UNL     1      49.739 161.979  32.924  0.00  0.00    +0.098 C 
ATOM     13  C   UNL     1      48.232 162.252  32.715  0.00  0.00    +0.106 C 
ATOM     14  N   UNL     1      47.915 162.199  31.300  0.00  0.00    -0.215 NA
ATOM     15  C   UNL     1      47.984 160.859  30.742  0.00  0.00    +0.110 C 
ATOM     16  C   UNL     1      49.069 160.103  31.516  0.00  0.00    +0.108 C 
ATOM     17  C   UNL     1      51.270 161.176  31.130  0.00  0.00    +0.422 C 
ATOM     18  O   UNL     1      51.606 160.435  30.164  0.00  0.00    -0.429 OA
ENDROOT
BRANCH   8  19
ATOM     19  C   UNL     1      52.490 154.034  27.935  0.00  0.00    +0.008 C 
ATOM     20  C   UNL     1      52.782 153.869  26.656  0.00  0.00    +0.078 C 
BRANCH  20  21
ATOM     21  C   UNL     1      53.236 152.584  26.141  0.00  0.00    +0.034 C 
ATOM     22  C   UNL     1      54.357 152.502  25.360  0.00  0.00    +0.143 C 
ATOM     23  C   UNL     1      54.758 151.303  24.780  0.00  0.00    +0.066 C 
ATOM     24  C   UNL     1      54.054 150.157  24.964  0.00  0.00    +0.136 C 
ATOM     25  C   UNL     1      52.930 150.197  25.738  0.00  0.00    +0.037 C 
ATOM     26  C   UNL     1      52.529 151.388  26.314  0.00  0.00    +0.006 C 
ATOM     27  F   UNL     1      55.153 153.569  25.160  0.00  0.00    -0.204 F 
BRANCH  24  28
ATOM     28  O   UNL     1      54.517 148.999  24.354  0.00  0.00    -0.505 OA
ATOM     29  H   UNL     1      55.067 149.056  23.598  0.00  0.00    +0.292 HD
ENDBRANCH  24  28
ENDBRANCH  20  21
BRANCH  20  30
ATOM     30  C   UNL     1      52.695 154.992  25.721  0.00  0.00    +0.338 C 
ATOM     31  O   UNL     1      53.450 156.016  25.795  0.00  0.00    -0.245 OA
BRANCH  30  32
ATOM     32  O   UNL     1      51.787 155.036  24.684  0.00  0.00    -0.477 OA
ATOM     33  H   UNL     1      52.079 154.925  23.801  0.00  0.00    +0.295 HD
ENDBRANCH  30  32
ENDBRANCH  20  30
ENDBRANCH   8  19
BRANCH  17  34
ATOM     34  O   UNL     1      52.247 162.144  31.452  0.00  0.00    -0.386 OA
BRANCH  34  35
ATOM     35  C   UNL     1      53.595 161.941  31.200  0.00  0.00    +0.413 C 
ATOM     36  O   UNL     1      54.006 161.738  30.029  0.00  0.00    -0.226 OA
ATOM     37  N   UNL     1      54.564 161.950  32.239  0.00  0.00    -0.187 N 
ATOM     38  C   UNL     1      55.946 161.747  32.028  0.00  0.00    +0.407 C 
ATOM     39  O   UNL     1      56.346 161.547  30.857  0.00  0.00    -0.226 OA
ATOM     40  H   UNL     1      54.254 162.107  33.159  0.00  0.00    +0.164 HD
BRANCH  38  41
ATOM     41  O   UNL     1      56.876 161.763  33.075  0.00  0.00    -0.466 OA
ATOM     42  H   UNL     1      56.741 162.325  33.812  0.00  0.00    +0.297 HD
ENDBRANCH  38  41
ENDBRANCH  34  35
ENDBRANCH  17  34
TORSDOF 8
ENDMDL
