REMARK  Name = =
REMARK  8 active torsions:
REMARK  status: ('A' for Active; 'I' for Inactive)
REMARK    1  A    between atoms: C_8  and  C_26
REMARK    2  A    between atoms: C_17  and  O_19
REMARK    3  A    between atoms: O_19  and  C_20
REMARK    4  A    between atoms: C_23  and  O_25
REMARK    5  A    between atoms: C_27  and  C_28
REMARK    6  A    between atoms: C_27  and  C_36
REMARK    7  A    between atoms: C_31  and  O_35
REMARK    8  A    between atoms: C_36  and  O_38
REMARK                            x       y       z     vdW  Elec       q    Type
REMARK                         _______ _______ _______ _____ _____    ______ ____
ROOT
ATOM      1  C   UNL     1      49.360 158.551  30.705  0.00  0.00    +0.049 C 
ATOM      2  C   UNL     1      48.484 157.610  30.255  0.00  0.00    +0.099 C 
ATOM      3  N   UNL     1      48.869 156.508  29.568  0.00  0.00    -0.242 NA
ATOM      4  C   UNL     1      50.180 156.333  29.318  0.00  0.00    +0.102 C 
ATOM      5  C   UNL     1      51.085 157.272  29.763  0.00  0.00    +0.133 C 
ATOM      6  N   UNL     1      52.377 157.050  29.488  0.00  0.00    -0.239 NA
ATOM      7  C   UNL     1      52.772 155.965  28.810  0.00  0.00    +0.099 C 
ATOM      8  C   UNL     1      51.875 154.993  28.343  0.00  0.00    +0.021 C 
ATOM      9  C   UNL     1      50.537 155.193  28.612  0.00  0.00    +0.022 C 
ATOM     10  C   UNL     1      50.707 158.407  30.468  0.00  0.00    +0.161 C 
ATOM     11  N   UNL     1      49.867 160.610  31.945  0.00  0.00    -0.197 NA
ATOM     12  C   UNL     1      49.483 161.429  33.076  0.00  0.00    +0.098 C 
ATOM     13  C   UNL     1      48.012 161.788  32.765  0.00  0.00    +0.106 C 
ATOM     14  N   UNL     1      47.819 161.866  31.329  0.00  0.00    -0.215 NA
ATOM     15  C   UNL     1      47.884 160.575  30.666  0.00  0.00    +0.110 C 
ATOM     16  C   UNL     1      48.867 159.708  31.460  0.00  0.00    +0.108 C 
ATOM     17  C   UNL     1      51.133 160.706  31.355  0.00  0.00    +0.422 C 
ATOM     18  O   UNL     1      51.524 160.032  30.361  0.00  0.00    -0.429 OA
ENDROOT
BRANCH   8  19
ATOM     19  C   UNL     1      52.349 153.803  27.671  0.00  0.00    +0.008 C 
ATOM     20  C   UNL     1      52.727 153.726  26.406  0.00  0.00    +0.078 C 
BRANCH  20  21
ATOM     21  C   UNL     1      53.176 152.469  25.823  0.00  0.00    +0.034 C 
ATOM     22  C   UNL     1      52.646 151.278  26.239  0.00  0.00    +0.143 C 
ATOM     23  C   UNL     1      53.124 150.060  25.766  0.00  0.00    +0.066 C 
ATOM     24  C   UNL     1      54.138 149.999  24.866  0.00  0.00    +0.136 C 
ATOM     25  C   UNL     1      54.693 151.166  24.424  0.00  0.00    +0.037 C 
ATOM     26  C   UNL     1      54.221 152.377  24.895  0.00  0.00    +0.006 C 
ATOM     27  F   UNL     1      51.603 151.232  27.088  0.00  0.00    -0.204 F 
BRANCH  24  28
ATOM     28  O   UNL     1      54.560 148.747  24.439  0.00  0.00    -0.505 OA
ATOM     29  H   UNL     1      54.147 147.975  24.772  0.00  0.00    +0.292 HD
ENDBRANCH  24  28
ENDBRANCH  20  21
BRANCH  20  30
ATOM     30  C   UNL     1      52.744 154.921  25.560  0.00  0.00    +0.338 C 
ATOM     31  O   UNL     1      53.673 155.791  25.608  0.00  0.00    -0.245 OA
BRANCH  30  32
ATOM     32  O   UNL     1      51.754 155.204  24.643  0.00  0.00    -0.477 OA
ATOM     33  H   UNL     1      51.030 154.618  24.539  0.00  0.00    +0.295 HD
ENDBRANCH  30  32
ENDBRANCH  20  30
ENDBRANCH   8  19
BRANCH  17  34
ATOM     34  O   UNL     1      52.115 161.598  31.841  0.00  0.00    -0.386 OA
BRANCH  34  35
ATOM     35  C   UNL     1      53.307 161.817  31.167  0.00  0.00    +0.413 C 
ATOM     36  O   UNL     1      53.310 162.100  29.942  0.00  0.00    -0.226 OA
ATOM     37  N   UNL     1      54.566 161.733  31.820  0.00  0.00    -0.187 N 
ATOM     38  C   UNL     1      55.804 161.948  31.174  0.00  0.00    +0.407 C 
ATOM     39  O   UNL     1      55.796 162.230  29.953  0.00  0.00    -0.226 OA
ATOM     40  H   UNL     1      54.576 161.512  32.779  0.00  0.00    +0.164 HD
BRANCH  38  41
ATOM     41  O   UNL     1      57.028 161.857  31.847  0.00  0.00    -0.466 OA
ATOM     42  H   UNL     1      57.046 161.647  32.760  0.00  0.00    +0.297 HD
ENDBRANCH  38  41
ENDBRANCH  34  35
ENDBRANCH  17  34
TORSDOF 8
