REMARK  Name = =
REMARK  1 active torsions:
REMARK  status: ('A' for Active; 'I' for Inactive)
REMARK    1  A    between atoms: C_2  and  N_8
REMARK                            x       y       z     vdW  Elec       q    Type
REMARK                         _______ _______ _______ _____ _____    ______ ____
ROOT
ATOM      1  C   UNL     1      -3.543  -3.644  30.693  0.00  0.00    +0.055 C 
ATOM      2  C   UNL     1      -4.333  -4.059  31.748  0.00  0.00    +0.130 C 
ATOM      3  N   UNL     1      -5.114  -3.147  32.355  0.00  0.00    -0.199 NA
ATOM      4  C   UNL     1      -5.167  -1.854  31.992  0.00  0.00    +0.215 C 
ATOM      5  N   UNL     1      -4.400  -1.462  30.972  0.00  0.00    -0.212 NA
ATOM      6  C   UNL     1      -3.588  -2.321  30.311  0.00  0.00    +0.105 C 
ATOM      7  N   UNL     1      -6.031  -0.996  32.714  0.00  0.00    -0.327 N 
ATOM      8  H   UNL     1      -6.570  -1.352  33.457  0.00  0.00    +0.145 HD
ATOM      9  H   UNL     1      -6.093  -0.043  32.473  0.00  0.00    +0.145 HD
ENDROOT
BRANCH   2  10
ATOM     10  N   UNL     1      -4.290  -5.409  32.141  0.00  0.00    -0.343 N 
ATOM     11  H   UNL     1      -3.703  -6.041  31.667  0.00  0.00    +0.144 HD
ATOM     12  H   UNL     1      -4.847  -5.722  32.890  0.00  0.00    +0.144 HD
ENDBRANCH   2  10
TORSDOF 1
