REMARK  Name = =
REMARK  2 active torsions:
REMARK  status: ('A' for Active; 'I' for Inactive)
REMARK    1  A    between atoms: C_2  and  N_8
REMARK    2  A    between atoms: N_8  and  C_9
REMARK                            x       y       z     vdW  Elec       q    Type
REMARK                         _______ _______ _______ _____ _____    ______ ____
ROOT
ATOM      1  C   UNL     1      -3.462  -3.808  31.138  0.00  0.00    +0.055 C 
ATOM      2  C   UNL     1      -3.881  -4.375  32.323  0.00  0.00    +0.133 C 
ATOM      3  N   UNL     1      -4.836  -3.674  32.996  0.00  0.00    -0.199 NA
ATOM      4  C   UNL     1      -5.331  -2.517  32.535  0.00  0.00    +0.215 C 
ATOM      5  N   UNL     1      -4.933  -1.951  31.380  0.00  0.00    -0.212 NA
ATOM      6  C   UNL     1      -3.995  -2.598  30.676  0.00  0.00    +0.105 C 
ATOM      7  N   UNL     1      -6.338  -1.815  33.282  0.00  0.00    -0.327 N 
ATOM      8  H   UNL     1      -6.666  -2.184  34.134  0.00  0.00    +0.145 HD
ATOM      9  H   UNL     1      -6.700  -0.965  32.942  0.00  0.00    +0.145 HD
ENDROOT
BRANCH   2  10
ATOM     10  N   UNL     1      -3.390  -5.594  32.839  0.00  0.00    -0.320 N 
ATOM     11  H   UNL     1      -3.688  -5.920  33.719  0.00  0.00    +0.148 HD
BRANCH  10  12
ATOM     12  C   UNL     1      -2.451  -6.351  32.062  0.00  0.00    +0.070 C 
ATOM     13  C   UNL     1      -3.165  -7.324  31.187  0.00  0.00    +0.020 C 
ATOM     14  C   UNL     1      -2.863  -8.725  31.747  0.00  0.00    +0.002 C 
ATOM     15  C   UNL     1      -2.575  -8.371  33.210  0.00  0.00    +0.002 C 
ATOM     16  C   UNL     1      -1.571  -7.234  32.957  0.00  0.00    +0.018 C 
ATOM     17  C   UNL     1      -0.606  -7.944  32.013  0.00  0.00    +0.002 C 
ATOM     18  C   UNL     1      -1.419  -9.003  31.297  0.00  0.00    +0.000 C 
ENDBRANCH  10  12
ENDBRANCH   2  10
TORSDOF 2
