REMARK  Name = =
REMARK  2 active torsions:
REMARK  status: ('A' for Active; 'I' for Inactive)
REMARK    1  A    between atoms: C_1  and  N_9
REMARK    2  A    between atoms: N_8  and  C_27
REMARK                            x       y       z     vdW  Elec       q    Type
REMARK                         _______ _______ _______ _____ _____    ______ ____
ROOT
ATOM      1  C   UNL     1      -2.145  -4.999  29.324  0.00  0.00    +0.109 C 
ATOM      2  C   UNL     1      -2.771  -5.623  30.397  0.00  0.00    +0.147 C 
ATOM      3  N   UNL     1      -3.865  -5.034  30.847  0.00  0.00    -0.198 NA
ATOM      4  C   UNL     1      -4.412  -3.914  30.373  0.00  0.00    +0.215 C 
ATOM      5  N   UNL     1      -3.778  -3.332  29.332  0.00  0.00    -0.211 NA
ATOM      6  C   UNL     1      -2.665  -3.839  28.794  0.00  0.00    +0.120 C 
ATOM      7  N   UNL     1      -5.606  -3.341  30.923  0.00  0.00    -0.327 N 
ATOM      8  N   UNL     1      -2.196  -6.812  30.891  0.00  0.00    -0.319 N 
ATOM      9  H   UNL     1      -6.057  -3.777  31.682  0.00  0.00    +0.145 HD
ATOM     10  H   UNL     1      -5.975  -2.512  30.542  0.00  0.00    +0.145 HD
ATOM     11  H   UNL     1      -1.377  -7.101  30.428  0.00  0.00    +0.148 HD
ENDROOT
BRANCH   1  12
ATOM     12  N   UNL     1      -0.990  -5.541  28.713  0.00  0.00    -0.227 N 
ATOM     13  C   UNL     1       0.122  -4.686  28.521  0.00  0.00    +0.091 C 
ATOM     14  C   UNL     1       1.272  -4.900  27.744  0.00  0.00    +0.156 C 
ATOM     15  N   UNL     1       2.253  -4.001  27.630  0.00  0.00    -0.227 NA
ATOM     16  C   UNL     1       2.133  -2.834  28.294  0.00  0.00    +0.100 C 
ATOM     17  C   UNL     1       1.010  -2.560  29.086  0.00  0.00    +0.022 C 
ATOM     18  C   UNL     1       0.002  -3.493  29.198  0.00  0.00    +0.020 C 
ATOM     19  N   UNL     1       1.591  -6.075  26.966  0.00  0.00    -0.214 N 
ATOM     20  C   UNL     1       1.185  -7.405  27.261  0.00  0.00    +0.064 C 
ATOM     21  C   UNL     1      -0.009  -7.792  27.865  0.00  0.00    +0.068 C 
ATOM     22  C   UNL     1      -0.271  -9.126  28.089  0.00  0.00    +0.006 C 
ATOM     23  C   UNL     1       0.665 -10.084  27.706  0.00  0.00    +0.000 C 
ATOM     24  C   UNL     1       1.833  -9.672  27.111  0.00  0.00    +0.001 C 
ATOM     25  C   UNL     1       2.132  -8.351  26.872  0.00  0.00    +0.015 C 
ATOM     26  C   UNL     1      -1.098  -6.920  28.354  0.00  0.00    +0.258 C 
ATOM     27  O   UNL     1      -2.203  -7.503  28.442  0.00  0.00    -0.269 OA
ATOM     28  C   UNL     1       2.378  -5.904  25.819  0.00  0.00    +0.312 C 
ATOM     29  O   UNL     1       2.796  -4.754  25.534  0.00  0.00    -0.264 OA
ENDBRANCH   1  12
BRANCH   8  30
ATOM     30  C   UNL     1      -2.612  -7.654  31.948  0.00  0.00    +0.070 C 
ATOM     31  C   UNL     1      -4.106  -7.734  32.179  0.00  0.00    +0.020 C 
ATOM     32  C   UNL     1      -4.251  -7.851  33.708  0.00  0.00    +0.002 C 
ATOM     33  C   UNL     1      -2.919  -8.551  34.033  0.00  0.00    +0.002 C 
ATOM     34  C   UNL     1      -2.007  -7.514  33.296  0.00  0.00    +0.018 C 
ATOM     35  C   UNL     1      -2.490  -6.279  34.002  0.00  0.00    +0.002 C 
ATOM     36  C   UNL     1      -3.966  -6.457  34.225  0.00  0.00    +0.000 C 
ENDBRANCH   8  30
TORSDOF 2
