REMARK  Name = =
REMARK  1 active torsions:
REMARK  status: ('A' for Active; 'I' for Inactive)
REMARK    1  A    between atoms: C_1  and  C_9
REMARK                            x       y       z     vdW  Elec       q    Type
REMARK                         _______ _______ _______ _____ _____    ______ ____
ROOT
ATOM      1  C   UNL     1      52.303 153.246  26.354  0.00  0.00    +0.019 C 
ATOM      2  C   UNL     1      53.289 154.189  25.711  0.00  0.00    +0.001 C 
ATOM      3  C   UNL     1      52.785 155.599  25.967  0.00  0.00    +0.000 C 
ATOM      4  C   UNL     1      53.114 155.976  27.373  0.00  0.00    +0.000 C 
ATOM      5  C   UNL     1      51.937 155.854  28.313  0.00  0.00    +0.000 C 
ATOM      6  C   UNL     1      51.153 154.583  28.093  0.00  0.00    +0.000 C 
ATOM      7  C   UNL     1      52.154 153.476  27.836  0.00  0.00    +0.001 C 
ENDROOT
BRANCH   1   9
ATOM      8  N   UNL     1      52.316 150.679  26.530  0.00  0.00    -0.131 NA
ATOM      9  C   UNL     1      52.630 151.817  26.070  0.00  0.00    +0.111 C 
ATOM     10  C   UNL     1      53.478 151.140  25.102  0.00  0.00    +0.128 C 
ATOM     11  N   UNL     1      53.120 150.036  25.613  0.00  0.00    -0.130 NA
ENDBRANCH   1   9
TORSDOF 1
