REMARK  Name = =
REMARK  4 active torsions:
REMARK  status: ('A' for Active; 'I' for Inactive)
REMARK    1  A    between atoms: C_1  and  C_9
REMARK    2  A    between atoms: C_1  and  N_12
REMARK    3  A    between atoms: C_13  and  O_15
REMARK    4  A    between atoms: O_15  and  C_16
REMARK                            x       y       z     vdW  Elec       q    Type
REMARK                         _______ _______ _______ _____ _____    ______ ____
ROOT
ATOM      1  C   UNL     1      52.770 155.940  27.452  0.00  0.00    +0.077 C 
ATOM      2  C   UNL     1      53.549 156.888  28.361  0.00  0.00    +0.020 C 
ATOM      3  C   UNL     1      52.949 158.252  28.421  0.00  0.00    +0.002 C 
ATOM      4  C   UNL     1      51.707 158.366  29.228  0.00  0.00    +0.000 C 
ATOM      5  C   UNL     1      51.325 157.112  29.968  0.00  0.00    +0.000 C 
ATOM      6  C   UNL     1      50.857 156.018  29.078  0.00  0.00    +0.002 C 
ATOM      7  C   UNL     1      51.275 156.178  27.643  0.00  0.00    +0.020 C 
ENDROOT
BRANCH   1   9
ATOM      8  N   UNL     1      52.412 156.142  24.897  0.00  0.00    -0.130 NA
ATOM      9  C   UNL     1      53.060 156.262  26.035  0.00  0.00    +0.127 C 
ATOM     10  C   UNL     1      54.134 156.829  25.254  0.00  0.00    +0.130 C 
ATOM     11  N   UNL     1      53.440 156.682  24.172  0.00  0.00    -0.130 NA
ENDBRANCH   1   9
BRANCH   1  12
ATOM     12  N   UNL     1      53.042 154.585  27.823  0.00  0.00    -0.272 N 
ATOM     13  C   UNL     1      53.245 153.549  26.886  0.00  0.00    +0.406 C 
ATOM     14  O   UNL     1      53.194 153.797  25.678  0.00  0.00    -0.226 OA
ATOM     15  H   UNL     1      53.090 154.364  28.781  0.00  0.00    +0.153 HD
BRANCH  13  16
ATOM     16  O   UNL     1      53.504 152.234  27.248  0.00  0.00    -0.410 OA
BRANCH  16  17
ATOM     17  C   UNL     1      53.531 151.185  26.334  0.00  0.00    +0.150 C 
ATOM     18  C   UNL     1      54.359 151.345  25.232  0.00  0.00    +0.038 C 
ATOM     19  C   UNL     1      54.483 150.385  24.247  0.00  0.00    +0.003 C 
ATOM     20  C   UNL     1      53.736 149.229  24.399  0.00  0.00    +0.000 C 
ATOM     21  C   UNL     1      52.913 149.074  25.499  0.00  0.00    +0.003 C 
ATOM     22  C   UNL     1      52.801 150.042  26.470  0.00  0.00    +0.038 C 
ENDBRANCH  16  17
ENDBRANCH  13  16
ENDBRANCH   1  12
TORSDOF 4
