REMARK  Name = =
REMARK  7 active torsions:
REMARK  status: ('A' for Active; 'I' for Inactive)
REMARK    1  A    between atoms: C_1  and  C_9
REMARK    2  A    between atoms: C_1  and  N_12
REMARK    3  A    between atoms: C_6  and  O_22
REMARK    4  A    between atoms: C_13  and  O_15
REMARK    5  A    between atoms: O_15  and  C_16
REMARK    6  A    between atoms: O_22  and  S_23
REMARK    7  A    between atoms: S_23  and  N_26
REMARK                            x       y       z     vdW  Elec       q    Type
REMARK                         _______ _______ _______ _____ _____    ______ ____
ROOT
ATOM      1  C   UNL     1      53.082 153.178  26.334  0.00  0.00    +0.080 C 
ATOM      2  C   UNL     1      52.036 153.588  25.340  0.00  0.00    +0.020 C 
ATOM      3  C   UNL     1      52.630 154.360  24.105  0.00  0.00    +0.002 C 
ATOM      4  C   UNL     1      54.004 154.133  24.195  0.00  0.00    +0.003 C 
ATOM      5  C   UNL     1      55.396 153.963  24.252  0.00  0.00    +0.032 C 
ATOM      6  C   UNL     1      55.605 153.124  25.570  0.00  0.00    +0.146 C 
ATOM      7  C   UNL     1      54.303 152.461  25.995  0.00  0.00    +0.052 C 
ENDROOT
BRANCH   1   9
ATOM      8  N   UNL     1      52.039 151.841  28.333  0.00  0.00    -0.130 NA
ATOM      9  C   UNL     1      52.306 152.108  27.110  0.00  0.00    +0.127 C 
ATOM     10  C   UNL     1      51.539 150.935  26.798  0.00  0.00    +0.130 C 
ATOM     11  N   UNL     1      51.283 150.687  28.027  0.00  0.00    -0.130 NA
ENDBRANCH   1   9
BRANCH   1  12
ATOM     12  N   UNL     1      53.335 154.136  27.393  0.00  0.00    -0.272 N 
ATOM     13  C   UNL     1      52.424 155.060  27.911  0.00  0.00    +0.406 C 
ATOM     14  O   UNL     1      51.257 155.134  27.482  0.00  0.00    -0.226 OA
ATOM     15  H   UNL     1      54.238 154.135  27.786  0.00  0.00    +0.153 HD
BRANCH  13  16
ATOM     16  O   UNL     1      52.821 155.934  28.942  0.00  0.00    -0.410 OA
BRANCH  16  17
ATOM     17  C   UNL     1      51.967 156.912  29.424  0.00  0.00    +0.150 C 
ATOM     18  C   UNL     1      52.221 158.219  29.076  0.00  0.00    +0.038 C 
ATOM     19  C   UNL     1      51.367 159.218  29.554  0.00  0.00    +0.003 C 
ATOM     20  C   UNL     1      50.284 158.929  30.358  0.00  0.00    +0.000 C 
ATOM     21  C   UNL     1      50.056 157.620  30.686  0.00  0.00    +0.003 C 
ATOM     22  C   UNL     1      50.890 156.604  30.226  0.00  0.00    +0.038 C 
ENDBRANCH  16  17
ENDBRANCH  13  16
ENDBRANCH   1  12
BRANCH   6  23
ATOM     23  O   UNL     1      56.536 152.152  25.359  0.00  0.00    -0.232 OA
BRANCH  23  24
ATOM     24  S   UNL     1      57.706 152.287  26.556  0.00  0.00    +0.045 S 
ATOM     25  O   UNL     1      58.805 151.306  26.410  0.00  0.00    -0.056 OA
ATOM     26  O   UNL     1      57.070 152.138  27.930  0.00  0.00    -0.056 OA
BRANCH  24  27
ATOM     27  N   UNL     1      58.349 153.901  26.502  0.00  0.00    -0.204 NA
ATOM     28  H   UNL     1      57.589 154.573  26.603  0.00  0.00    +0.144 HD
ATOM     29  H   UNL     1      58.819 154.050  25.609  0.00  0.00    +0.144 HD
ENDBRANCH  24  27
ENDBRANCH  23  24
ENDBRANCH   6  23
TORSDOF 7
