REMARK  Name = =
REMARK  3 active torsions:
REMARK  status: ('A' for Active; 'I' for Inactive)
REMARK    1  A    between atoms: C_1  and  C_10
REMARK    2  A    between atoms: C_7  and  N_13
REMARK    3  A    between atoms: N_13  and  N_14
REMARK                            x       y       z     vdW  Elec       q    Type
REMARK                         _______ _______ _______ _____ _____    ______ ____
ROOT
ATOM      1  C   UNL     1     -16.726 -11.447  23.071  0.00  0.00    +0.149 C 
ATOM      2  O   UNL     1     -17.291 -11.587  24.337  0.00  0.00    -0.345 OA
ATOM      3  C   UNL     1     -16.644 -12.531  25.095  0.00  0.00    +0.206 C 
ATOM      4  C   UNL     1     -16.781 -13.849  24.415  0.00  0.00    +0.182 C 
ATOM      5  O   UNL     1     -17.080 -14.806  25.080  0.00  0.00    -0.293 OA
ATOM      6  C   UNL     1     -16.533 -13.873  22.947  0.00  0.00    +0.087 C 
ATOM      7  C   UNL     1     -17.107 -12.650  22.267  0.00  0.00    +0.104 C 
ENDROOT
BRANCH   1  10
ATOM      8  N   UNL     1     -16.108  -8.590  23.699  0.00  0.00    -0.281 NA
ATOM      9  C   UNL     1     -16.043  -9.187  22.380  0.00  0.00    +0.090 C 
ATOM     10  C   UNL     1     -17.226 -10.163  22.488  0.00  0.00    +0.118 C 
ATOM     11  N   UNL     1     -18.103  -9.434  23.384  0.00  0.00    -0.198 NA
ATOM     12  C   UNL     1     -17.470  -8.553  24.062  0.00  0.00    +0.160 C 
ATOM     13  H   UNL     1     -15.582  -9.154  24.366  0.00  0.00    +0.125 HD
ENDBRANCH   1  10
BRANCH   7  14
ATOM     14  N   UNL     1     -16.593 -12.571  20.920  0.00  0.00    -0.247 NA
ATOM     15  H   UNL     1     -15.586 -12.411  20.957  0.00  0.00    +0.141 HD
BRANCH  14  16
ATOM     16  N   UNL     1     -16.839 -13.740  20.223  0.00  0.00    -0.270 NA
ATOM     17  H   UNL     1     -17.844 -13.907  20.183  0.00  0.00    +0.137 HD
ATOM     18  H   UNL     1     -16.384 -14.520  20.697  0.00  0.00    +0.137 HD
ENDBRANCH  14  16
ENDBRANCH   7  14
TORSDOF 3
