MODEL 1
REMARK VINA RESULT:    -9.842      0.000      0.000
REMARK INTER + INTRA:         -11.955
REMARK INTER:                 -13.007
REMARK INTRA:                   1.052
REMARK UNBOUND:                 1.052
REMARK  Name = =
REMARK  6 active torsions:
REMARK  status: ('A' for Active; 'I' for Inactive)
REMARK    1  A    between atoms: P_1  and  O_3
REMARK    2  A    between atoms: P_1  and  O_4
REMARK    3  A    between atoms: P_1  and  O_17
REMARK    4  A    between atoms: O_4  and  C_9
REMARK    5  A    between atoms: C_5  and  C_16
REMARK    6  A    between atoms: O_17  and  C_18
REMARK                            x       y       z     vdW  Elec       q    Type
REMARK                         _______ _______ _______ _____ _____    ______ ____
ROOT
ATOM      1  P   UNL     1      51.068 155.937  29.323  0.00  0.00    +0.589 P 
ATOM      2  O   UNL     1      52.315 156.820  29.285  0.00  0.00    -0.205 OA
ENDROOT
BRANCH   1   3
ATOM      3  O   UNL     1      51.314 154.825  30.576  0.00  0.00    -0.283 OA
ATOM      4  H   UNL     1      51.636 153.988  30.207  0.00  0.00    +0.224 HD
ENDBRANCH   1   3
BRANCH   1   5
ATOM      5  O   UNL     1      50.912 155.048  27.878  0.00  0.00    -0.378 OA
BRANCH   5  10
ATOM      6  C   UNL     1      52.073 153.417  26.286  0.00  0.00    +0.204 C 
ATOM      7  N   UNL     1      52.774 152.194  26.625  0.00  0.00    -0.238 NA
ATOM      8  C   UNL     1      52.728 152.042  27.894  0.00  0.00    +0.197 C 
ATOM      9  N   UNL     1      52.022 153.092  28.541  0.00  0.00    -0.191 NA
ATOM     10  C   UNL     1      51.636 153.897  27.620  0.00  0.00    +0.239 C 
BRANCH   6  17
ATOM     11 CL   UNL     1      53.882 152.185  24.257  0.00  0.00    -0.082 Cl
ATOM     12  C   UNL     1      53.930 153.899  24.669  0.00  0.00    +0.056 C 
ATOM     13  C   UNL     1      54.829 154.742  24.052  0.00  0.00    +0.011 C 
ATOM     14  C   UNL     1      54.822 156.083  24.417  0.00  0.00    +0.001 C 
ATOM     15  C   UNL     1      53.926 156.533  25.381  0.00  0.00    -0.000 C 
ATOM     16  C   UNL     1      53.036 155.667  25.985  0.00  0.00    -0.001 C 
ATOM     17  C   UNL     1      53.032 154.342  25.633  0.00  0.00    +0.019 C 
ENDBRANCH   6  17
ENDBRANCH   5  10
ENDBRANCH   1   5
BRANCH   1  18
ATOM     18  O   UNL     1      49.702 156.856  29.697  0.00  0.00    -0.394 OA
BRANCH  18  19
ATOM     19  C   UNL     1      49.803 158.101  30.307  0.00  0.00    +0.153 C 
ATOM     20  C   UNL     1      48.785 158.627  31.076  0.00  0.00    +0.078 C 
ATOM     21  C   UNL     1      48.879 159.869  31.687  0.00  0.00    +0.179 C 
ATOM     22  C   UNL     1      50.030 160.625  31.531  0.00  0.00    +0.177 C 
ATOM     23  C   UNL     1      51.063 160.124  30.768  0.00  0.00    +0.043 C 
ATOM     24  C   UNL     1      50.944 158.888  30.173  0.00  0.00    +0.041 C 
ATOM     25  O   UNL     1      49.892 161.815  32.228  0.00  0.00    -0.435 OA
ATOM     26  C   UNL     1      48.689 161.767  32.968  0.00  0.00    +0.429 C 
ATOM     27  O   UNL     1      48.034 160.626  32.495  0.00  0.00    -0.435 OA
ENDBRANCH  18  19
ENDBRANCH   1  18
TORSDOF 6
ENDMDL
