REMARK  Name = =
REMARK  1 active torsions:
REMARK  status: ('A' for Active; 'I' for Inactive)
REMARK    1  A    between atoms: C_1  and  C_17
REMARK                            x       y       z     vdW  Elec       q    Type
REMARK                         _______ _______ _______ _____ _____    ______ ____
ROOT
ATOM      1  C   UNL     1      -2.226  -5.635  30.870  0.00  0.00    +0.012 C 
ATOM      2  C   UNL     1      -1.397  -5.698  29.760  0.00  0.00    -0.001 C 
ATOM      3  C   UNL     1      -1.483  -4.660  28.820  0.00  0.00    -0.000 C 
ATOM      4  C   UNL     1      -2.366  -3.619  29.010  0.00  0.00    -0.000 C 
ATOM      5  C   UNL     1      -3.180  -3.570  30.119  0.00  0.00    -0.000 C 
ATOM      6  C   UNL     1      -3.123  -4.565  31.056  0.00  0.00    -0.001 C 
ATOM      7  C   UNL     1      -3.931  -4.469  32.176  0.00  0.00    -0.000 C 
ATOM      8  C   UNL     1      -4.789  -3.392  32.353  0.00  0.00    -0.000 C 
ATOM      9  C   UNL     1      -4.845  -2.397  31.405  0.00  0.00    -0.000 C 
ATOM     10  C   UNL     1      -4.035  -2.504  30.298  0.00  0.00    -0.000 C 
ATOM     11  C   UNL     1      -0.670  -4.704  27.706  0.00  0.00    -0.000 C 
ATOM     12  C   UNL     1       0.230  -5.716  27.459  0.00  0.00    -0.000 C 
ATOM     13  C   UNL     1       0.295  -6.729  28.402  0.00  0.00    -0.000 C 
ATOM     14  C   UNL     1      -0.503  -6.715  29.525  0.00  0.00    -0.000 C 
ENDROOT
BRANCH   1  17
ATOM     15  C   UNL     1      -1.071  -8.130  33.248  0.00  0.00    +0.169 C 
ATOM     16  O   UNL     1      -1.107  -7.355  32.112  0.00  0.00    -0.339 OA
ATOM     17  C   UNL     1      -2.214  -6.634  31.919  0.00  0.00    +0.199 C 
ATOM     18  C   UNL     1      -3.325  -7.665  31.785  0.00  0.00    +0.204 C 
ATOM     19  O   UNL     1      -4.067  -7.772  30.806  0.00  0.00    -0.288 OA
ATOM     20  C   UNL     1      -3.436  -8.541  32.945  0.00  0.00    +0.038 C 
ATOM     21  C   UNL     1      -2.331  -8.753  33.642  0.00  0.00    +0.009 C 
ENDBRANCH   1  17
TORSDOF 1
