REMARK  Name = =
REMARK  0 active torsions:
REMARK  status: ('A' for Active; 'I' for Inactive)
REMARK                            x       y       z     vdW  Elec       q    Type
REMARK                         _______ _______ _______ _____ _____    ______ ____
ROOT
ATOM      1  C   UNL     1     -13.340 -42.550  27.421  0.00  0.00    +0.180 C 
ATOM      2  N   UNL     1     -12.498 -42.537  28.391  0.00  0.00    -0.224 NA
ATOM      3  C   UNL     1     -11.945 -43.847  28.539  0.00  0.00    +0.252 C 
ATOM      4  N   UNL     1     -12.620 -44.584  27.493  0.00  0.00    -0.240 NA
ATOM      5  C   UNL     1     -13.422 -43.802  26.863  0.00  0.00    +0.133 C 
ATOM      6  C   UNL     1     -14.269 -44.037  25.806  0.00  0.00    +0.122 C 
ATOM      7  N   UNL     1     -15.034 -43.019  25.306  0.00  0.00    -0.221 NA
ATOM      8  C   UNL     1     -14.950 -41.794  25.856  0.00  0.00    +0.200 C 
ATOM      9  N   UNL     1     -14.125 -41.556  26.888  0.00  0.00    -0.204 NA
ENDROOT
TORSDOF 0
