REMARK  Name = =
REMARK  0 active torsions:
REMARK  status: ('A' for Active; 'I' for Inactive)
REMARK                            x       y       z     vdW  Elec       q    Type
REMARK                         _______ _______ _______ _____ _____    ______ ____
ROOT
ATOM      1  N   UNL     1      51.746 155.897  29.013  0.00  0.00    -0.196 N 
ATOM      2  N   UNL     1      52.791 156.513  28.673  0.00  0.00    -0.170 NA
ATOM      3  C   UNL     1      53.110 157.671  28.792  0.00  0.00    +0.157 C 
ATOM      4  S   UNL     1      51.565 158.330  29.657  0.00  0.00    -0.006 S 
ATOM      5  C   UNL     1      50.780 156.632  29.628  0.00  0.00    +0.297 C 
ATOM      6  O   UNL     1      49.699 156.375  30.068  0.00  0.00    -0.261 OA
ATOM      7  H   UNL     1      51.634 154.934  28.843  0.00  0.00    +0.178 HD
ENDROOT
TORSDOF 0
