REMARK  Name = =
REMARK  1 active torsions:
REMARK  status: ('A' for Active; 'I' for Inactive)
REMARK    1  A    between atoms: C_10  and  N_11
REMARK                            x       y       z     vdW  Elec       q    Type
REMARK                         _______ _______ _______ _____ _____    ______ ____
ROOT
ATOM      1  C   UNL     1      52.727 153.763  25.273  0.00  0.00    +0.000 C 
ATOM      2  C   UNL     1      52.647 155.102  25.577  0.00  0.00    +0.000 C 
ATOM      3  C   UNL     1      52.291 155.505  26.832  0.00  0.00    +0.001 C 
ATOM      4  C   UNL     1      52.009 154.575  27.805  0.00  0.00    +0.016 C 
ATOM      5  C   UNL     1      52.093 153.213  27.486  0.00  0.00    +0.001 C 
ATOM      6  C   UNL     1      52.452 152.802  26.219  0.00  0.00    +0.000 C 
ATOM      7  C   UNL     1      51.802 152.302  28.491  0.00  0.00    +0.000 C 
ATOM      8  C   UNL     1      51.442 152.685  29.764  0.00  0.00    +0.001 C 
ATOM      9  C   UNL     1      51.377 154.046  30.011  0.00  0.00    +0.017 C 
ATOM     10  C   UNL     1      51.653 154.994  29.064  0.00  0.00    +0.078 C 
ENDROOT
BRANCH  10  11
ATOM     11  N   UNL     1      51.591 156.412  29.305  0.00  0.00    -0.149 N 
ATOM     12  N   UNL     1      52.553 157.269  29.387  0.00  0.00    -0.162 NA
ATOM     13  C   UNL     1      52.615 158.369  29.569  0.00  0.00    +0.158 C 
ATOM     14  S   UNL     1      50.745 158.768  29.756  0.00  0.00    -0.005 S 
ATOM     15  C   UNL     1      50.357 156.971  29.479  0.00  0.00    +0.305 C 
ATOM     16  O   UNL     1      49.212 156.509  29.475  0.00  0.00    -0.260 OA
ENDBRANCH  10  11
TORSDOF 1
