REMARK  Name = =
REMARK  6 active torsions:
REMARK  status: ('A' for Active; 'I' for Inactive)
REMARK    1  A    between atoms: C_1  and  C_21
REMARK    2  A    between atoms: C_10  and  N_11
REMARK    3  A    between atoms: C_17  and  O_22
REMARK    4  A    between atoms: O_22  and  N_25
REMARK    5  A    between atoms: C_23  and  C_26
REMARK    6  A    between atoms: C_26  and  N_27
REMARK                            x       y       z     vdW  Elec       q    Type
REMARK                         _______ _______ _______ _____ _____    ______ ____
ROOT
ATOM      1  C   UNL     1      51.496 155.974  28.649  0.00  0.00    -0.020 C 
ATOM      2  C   UNL     1      51.347 154.600  28.605  0.00  0.00    -0.004 C 
ATOM      3  C   UNL     1      51.987 153.826  27.644  0.00  0.00    +0.001 C 
ATOM      4  C   UNL     1      52.774 154.463  26.737  0.00  0.00    +0.016 C 
ATOM      5  C   UNL     1      52.926 155.854  26.780  0.00  0.00    +0.001 C 
ATOM      6  C   UNL     1      52.291 156.626  27.732  0.00  0.00    -0.004 C 
ATOM      7  C   UNL     1      53.732 156.485  25.846  0.00  0.00    +0.000 C 
ATOM      8  C   UNL     1      54.368 155.726  24.891  0.00  0.00    +0.001 C 
ATOM      9  C   UNL     1      54.204 154.335  24.863  0.00  0.00    +0.017 C 
ATOM     10  C   UNL     1      53.407 153.704  25.786  0.00  0.00    +0.078 C 
ENDROOT
BRANCH  10  11
ATOM     11  N   UNL     1      53.242 152.250  25.754  0.00  0.00    -0.149 N 
ATOM     12  N   UNL     1      52.341 151.579  26.402  0.00  0.00    -0.162 NA
ATOM     13  C   UNL     1      52.092 150.480  26.479  0.00  0.00    +0.158 C 
ATOM     14  S   UNL     1      53.423 149.766  25.326  0.00  0.00    -0.005 S 
ATOM     15  C   UNL     1      54.066 151.456  25.000  0.00  0.00    +0.305 C 
ATOM     16  O   UNL     1      55.031 151.727  24.255  0.00  0.00    -0.260 OA
ENDBRANCH  10  11
BRANCH   1  21
ATOM     17  C   UNL     1      50.814 158.208  29.552  0.00  0.00    +0.146 C 
ATOM     18  C   UNL     1      49.683 158.648  30.465  0.00  0.00    +0.032 C 
ATOM     19  C   UNL     1      48.747 157.474  30.597  0.00  0.00    +0.003 C 
ATOM     20  C   UNL     1      49.288 156.418  29.654  0.00  0.00    +0.007 C 
ATOM     21  C   UNL     1      50.778 156.709  29.695  0.00  0.00    +0.052 C 
BRANCH  17  22
ATOM     22  O   UNL     1      51.991 158.775  30.031  0.00  0.00    -0.269 OA
BRANCH  22  25
ATOM     23  C   UNL     1      51.520 161.037  30.856  0.00  0.00    +0.260 C 
ATOM     24  O   UNL     1      51.592 161.503  29.689  0.00  0.00    -0.272 OA
ATOM     25  N   UNL     1      51.724 159.646  31.027  0.00  0.00    -0.192 N 
ATOM     26  H   UNL     1      51.667 159.287  31.942  0.00  0.00    +0.183 HD
BRANCH  23  27
ATOM     27  C   UNL     1      51.231 161.954  31.970  0.00  0.00    +0.154 C 
BRANCH  27  28
ATOM     28  N   UNL     1      51.464 161.366  33.264  0.00  0.00    -0.313 NA
ATOM     29  H   UNL     1      51.247 162.047  33.991  0.00  0.00    +0.119 HD
ATOM     30  H   UNL     1      52.442 161.088  33.340  0.00  0.00    +0.119 HD
ENDBRANCH  27  28
ENDBRANCH  23  27
ENDBRANCH  22  25
ENDBRANCH  17  22
ENDBRANCH   1  21
TORSDOF 6
