REMARK  Name = =
REMARK  7 active torsions:
REMARK  status: ('A' for Active; 'I' for Inactive)
REMARK    1  A    between atoms: C_1  and  C_9
REMARK    2  A    between atoms: C_2  and  C_15
REMARK    3  A    between atoms: C_6  and  O_14
REMARK    4  A    between atoms: C_7  and  O_13
REMARK    5  A    between atoms: C_15  and  O_17
REMARK    6  A    between atoms: C_23  and  S_25
REMARK    7  A    between atoms: S_25  and  N_28
REMARK                            x       y       z     vdW  Elec       q    Type
REMARK                         _______ _______ _______ _____ _____    ______ ____
ROOT
ATOM      1  C   UNL     1      51.581 159.244  29.869  0.00  0.00    -0.005 C 
ATOM      2  C   UNL     1      51.434 157.891  29.922  0.00  0.00    -0.016 C 
ATOM      3  C   UNL     1      50.170 157.393  30.160  0.00  0.00    +0.036 C 
ATOM      4  C   UNL     1      49.077 158.250  30.341  0.00  0.00    +0.167 C 
ATOM      5  C   UNL     1      49.239 159.612  30.287  0.00  0.00    +0.167 C 
ATOM      6  C   UNL     1      50.518 160.101  30.046  0.00  0.00    +0.037 C 
ATOM      7  C   UNL     1      52.561 156.970  29.745  0.00  0.00    +0.062 C 
ATOM      8  C   UNL     1      53.835 157.674  29.403  0.00  0.00    +0.098 C 
ATOM      9  N   UNL     1      53.710 158.959  28.799  0.00  0.00    -0.213 NA
ATOM     10  C   UNL     1      52.921 159.878  29.607  0.00  0.00    +0.115 C 
ENDROOT
BRANCH   7  11
ATOM     11  C   UNL     1      52.227 155.881  28.754  0.00  0.00    -0.014 C 
ATOM     12  C   UNL     1      51.926 154.685  29.196  0.00  0.00    +0.077 C 
BRANCH  12  13
ATOM     13  C   UNL     1      51.581 153.523  28.432  0.00  0.00    +0.338 C 
ATOM     14  O   UNL     1      51.900 152.379  28.842  0.00  0.00    -0.245 OA
BRANCH  13  15
ATOM     15  O   UNL     1      50.901 153.588  27.244  0.00  0.00    -0.477 OA
ATOM     16  H   UNL     1      50.642 154.419  26.898  0.00  0.00    +0.295 HD
ENDBRANCH  13  15
ENDBRANCH  12  13
ENDBRANCH   7  11
BRANCH   5  17
ATOM     17  O   UNL     1      48.232 160.540  30.451  0.00  0.00    -0.503 OA
ATOM     18  H   UNL     1      47.355 160.255  30.615  0.00  0.00    +0.292 HD
ENDBRANCH   5  17
BRANCH   4  19
ATOM     19  O   UNL     1      47.817 157.737  30.578  0.00  0.00    -0.503 OA
ATOM     20  H   UNL     1      47.689 156.810  30.618  0.00  0.00    +0.292 HD
ENDBRANCH   4  19
TORSDOF 5
REMARK  Name = =
REMARK  7 active torsions:
REMARK  status: ('A' for Active; 'I' for Inactive)
REMARK    1  A    between atoms: C_1  and  C_9
REMARK    2  A    between atoms: C_2  and  C_15
REMARK    3  A    between atoms: C_6  and  O_14
REMARK    4  A    between atoms: C_7  and  O_13
REMARK    5  A    between atoms: C_15  and  O_17
REMARK    6  A    between atoms: C_23  and  S_25
REMARK    7  A    between atoms: S_25  and  N_28
REMARK                            x       y       z     vdW  Elec       q    Type
REMARK                         _______ _______ _______ _____ _____    ______ ____
ROOT
ATOM      1  I   UNL     1      52.252 156.322  26.728  0.00  0.00    -0.107 I 
ATOM      2  H   UNL     1      53.813 156.322  26.728  0.00  0.00    +0.107 HD
ENDROOT
TORSDOF 0
REMARK  Name = =
REMARK  7 active torsions:
REMARK  status: ('A' for Active; 'I' for Inactive)
REMARK    1  A    between atoms: C_1  and  C_9
REMARK    2  A    between atoms: C_2  and  C_15
REMARK    3  A    between atoms: C_6  and  O_14
REMARK    4  A    between atoms: C_7  and  O_13
REMARK    5  A    between atoms: C_15  and  O_17
REMARK    6  A    between atoms: C_23  and  S_25
REMARK    7  A    between atoms: S_25  and  N_28
REMARK                            x       y       z     vdW  Elec       q    Type
REMARK                         _______ _______ _______ _____ _____    ______ ____
ROOT
ATOM      1  P   UNL     1      53.836 155.137  25.544  0.00  0.00    +0.000 P 
ENDROOT
TORSDOF 0
REMARK  Name = =
REMARK  7 active torsions:
REMARK  status: ('A' for Active; 'I' for Inactive)
REMARK    1  A    between atoms: C_1  and  C_9
REMARK    2  A    between atoms: C_2  and  C_15
REMARK    3  A    between atoms: C_6  and  O_14
REMARK    4  A    between atoms: C_7  and  O_13
REMARK    5  A    between atoms: C_15  and  O_17
REMARK    6  A    between atoms: C_23  and  S_25
REMARK    7  A    between atoms: S_25  and  N_28
REMARK                            x       y       z     vdW  Elec       q    Type
REMARK                         _______ _______ _______ _____ _____    ______ ____
ROOT
ATOM      1  O   HOH     1      53.531 156.577  25.259  0.00  0.00    -0.253 OA
ATOM      2  H   HOH     0      54.501 156.577  25.259  0.00  0.00    +0.253 HD
ENDROOT
TORSDOF 0
REMARK  Name = =
REMARK  7 active torsions:
REMARK  status: ('A' for Active; 'I' for Inactive)
REMARK    1  A    between atoms: C_1  and  C_9
REMARK    2  A    between atoms: C_2  and  C_15
REMARK    3  A    between atoms: C_6  and  O_14
REMARK    4  A    between atoms: C_7  and  O_13
REMARK    5  A    between atoms: C_15  and  O_17
REMARK    6  A    between atoms: C_23  and  S_25
REMARK    7  A    between atoms: S_25  and  N_28
REMARK                            x       y       z     vdW  Elec       q    Type
REMARK                         _______ _______ _______ _____ _____    ______ ____
ROOT
ATOM      1  O   HOH     1      53.642 153.841  26.643  0.00  0.00    -0.253 OA
ATOM      2  H   HOH     0      54.612 153.841  26.643  0.00  0.00    +0.253 HD
ENDROOT
TORSDOF 0
REMARK  Name = =
REMARK  7 active torsions:
REMARK  status: ('A' for Active; 'I' for Inactive)
REMARK    1  A    between atoms: C_1  and  C_9
REMARK    2  A    between atoms: C_2  and  C_15
REMARK    3  A    between atoms: C_6  and  O_14
REMARK    4  A    between atoms: C_7  and  O_13
REMARK    5  A    between atoms: C_15  and  O_17
REMARK    6  A    between atoms: C_23  and  S_25
REMARK    7  A    between atoms: S_25  and  N_28
REMARK                            x       y       z     vdW  Elec       q    Type
REMARK                         _______ _______ _______ _____ _____    ______ ____
ROOT
ATOM      1  O   HOH     1      52.680 155.082  24.329  0.00  0.00    -0.253 OA
ATOM      2  H   HOH     0      53.650 155.082  24.329  0.00  0.00    +0.253 HD
ENDROOT
TORSDOF 0
REMARK  Name = =
REMARK  7 active torsions:
REMARK  status: ('A' for Active; 'I' for Inactive)
REMARK    1  A    between atoms: C_1  and  C_9
REMARK    2  A    between atoms: C_2  and  C_15
REMARK    3  A    between atoms: C_6  and  O_14
REMARK    4  A    between atoms: C_7  and  O_13
REMARK    5  A    between atoms: C_15  and  O_17
REMARK    6  A    between atoms: C_23  and  S_25
REMARK    7  A    between atoms: S_25  and  N_28
REMARK                            x       y       z     vdW  Elec       q    Type
REMARK                         _______ _______ _______ _____ _____    ______ ____
ROOT
ATOM      1  S   UNL     1      54.362 152.254  24.712  0.00  0.00    +0.058 S 
ATOM      2  O   UNL     1      53.027 152.093  25.414  0.00  0.00    -0.153 OA
ATOM      3  O   UNL     1      55.304 151.242  25.275  0.00  0.00    -0.153 OA
ENDROOT
BRANCH   1   4
ATOM      4  N   UNL     1      54.115 152.030  23.042  0.00  0.00    -0.203 NA
ATOM      5  H   UNL     1      55.002 152.134  22.550  0.00  0.00    +0.144 HD
ATOM      6  H   UNL     1      53.453 152.726  22.700  0.00  0.00    +0.144 HD
ENDBRANCH   1   4
BRANCH   1   7
ATOM      7  C   UNL     1      54.932 153.863  25.080  0.00  0.00    +0.140 C 
ATOM      8  C   UNL     1      56.203 154.174  24.998  0.00  0.00    +0.023 C 
ENDBRANCH   1   7
TORSDOF 2
