MODEL 1
REMARK VINA RESULT:   -10.027      0.000      0.000
REMARK INTER + INTRA:         -15.346
REMARK INTER:                 -14.131
REMARK INTRA:                  -1.216
REMARK UNBOUND:                -1.216
REMARK  Name = =
REMARK  8 active torsions:
REMARK  status: ('A' for Active; 'I' for Inactive)
REMARK    1  A    between atoms: C_1  and  C_7
REMARK    2  A    between atoms: C_3  and  C_28
REMARK    3  A    between atoms: C_4  and  O_36
REMARK    4  A    between atoms: C_12  and  C_13
REMARK    5  A    between atoms: C_29  and  O_35
REMARK    6  A    between atoms: C_32  and  S_34
REMARK    7  A    between atoms: O_36  and  N_37
REMARK    8  A    between atoms: N_37  and  S_38
REMARK                            x       y       z     vdW  Elec       q    Type
REMARK                         _______ _______ _______ _____ _____    ______ ____
ROOT
ATOM      1  C   UNL     1       2.992  -3.059  26.385  0.00  0.00    +0.005 C 
ATOM      2  C   UNL     1       3.323  -3.303  25.050  0.00  0.00    +0.001 C 
ATOM      3  C   UNL     1       4.628  -3.326  24.627  0.00  0.00    +0.039 C 
ATOM      4  C   UNL     1       5.693  -3.114  25.479  0.00  0.00    +0.167 C 
ATOM      5  C   UNL     1       5.356  -2.874  26.797  0.00  0.00    +0.039 C 
ATOM      6  C   UNL     1       4.040  -2.845  27.245  0.00  0.00    +0.001 C 
ENDROOT
BRANCH   1   7
ATOM      7  C   UNL     1       1.556  -3.057  26.756  0.00  0.00    +0.141 C 
ATOM      8  O   UNL     1       0.785  -2.524  25.711  0.00  0.00    -0.352 OA
ATOM      9  C   UNL     1       1.241  -1.280  25.294  0.00  0.00    +0.143 C 
ATOM     10  C   UNL     1       1.575  -0.381  26.457  0.00  0.00    +0.033 C 
ATOM     11  C   UNL     1       1.067  -0.872  27.761  0.00  0.00    +0.010 C 
ATOM     12  C   UNL     1       1.192  -2.353  28.005  0.00  0.00    +0.054 C 
BRANCH  12  13
ATOM     13  C   UNL     1      -0.020  -2.935  28.586  0.00  0.00    -0.019 C 
ATOM     14  C   UNL     1       0.031  -4.057  29.381  0.00  0.00    +0.002 C 
ATOM     15  C   UNL     1      -1.091  -4.625  29.941  0.00  0.00    +0.025 C 
ATOM     16  C   UNL     1      -2.319  -4.042  29.695  0.00  0.00    -0.016 C 
ATOM     17  C   UNL     1      -2.417  -2.923  28.909  0.00  0.00    -0.004 C 
ATOM     18  C   UNL     1      -1.246  -2.381  28.361  0.00  0.00    -0.004 C 
ATOM     19  C   UNL     1      -3.634  -4.491  30.194  0.00  0.00    +0.032 C 
ATOM     20  C   UNL     1      -3.655  -4.568  31.721  0.00  0.00    +0.032 C 
ATOM     21  C   UNL     1      -3.295  -5.960  32.134  0.00  0.00    -0.016 C 
ATOM     22  C   UNL     1      -2.115  -6.606  31.839  0.00  0.00    +0.025 C 
ATOM     23  C   UNL     1      -1.916  -7.903  32.286  0.00  0.00    +0.006 C 
ATOM     24  C   UNL     1      -2.893  -8.564  33.030  0.00  0.00    +0.000 C 
ATOM     25  C   UNL     1      -4.083  -7.911  33.327  0.00  0.00    -0.000 C 
ATOM     26  C   UNL     1      -4.254  -6.613  32.866  0.00  0.00    -0.004 C 
ATOM     27  S   UNL     1      -0.674  -6.076  30.923  0.00  0.00    -0.088 S 
ENDBRANCH  12  13
ENDBRANCH   1   7
BRANCH   3  28
ATOM     28  C   UNL     1       4.958  -3.596  23.210  0.00  0.00    +0.037 C 
ATOM     29  C   UNL     1       5.158  -2.513  22.353  0.00  0.00    +0.134 C 
ATOM     30  C   UNL     1       5.471  -2.761  21.035  0.00  0.00    +0.037 C 
ATOM     31  C   UNL     1       5.590  -4.049  20.551  0.00  0.00    +0.009 C 
ATOM     32  C   UNL     1       5.396  -5.138  21.393  0.00  0.00    +0.022 C 
ATOM     33  C   UNL     1       5.083  -4.853  22.709  0.00  0.00    +0.009 C 
BRANCH  32  34
ATOM     34  S   UNL     1       5.548  -6.803  20.781  0.00  0.00    -0.141 S 
ATOM     35  H   UNL     1       6.820  -7.243  20.973  0.00  0.00    +0.107 HD
ENDBRANCH  32  34
BRANCH  29  36
ATOM     36  O   UNL     1       5.040  -1.207  22.817  0.00  0.00    -0.506 OA
ATOM     37  H   UNL     1       4.284  -0.699  22.599  0.00  0.00    +0.292 HD
ENDBRANCH  29  36
ENDBRANCH   3  28
BRANCH   4  38
ATOM     38  O   UNL     1       7.011  -3.136  25.051  0.00  0.00    -0.385 OA
BRANCH  38  39
ATOM     39  N   UNL     1       7.693  -2.099  24.528  0.00  0.00    -0.027 NA
ATOM     40  H   UNL     1       7.384  -1.950  23.567  0.00  0.00    +0.195 HD
BRANCH  39  41
ATOM     41  S   UNL     1       7.436  -0.661  25.422  0.00  0.00    +0.050 S 
ATOM     42  O   UNL     1       6.773   0.402  24.587  0.00  0.00    -0.158 OA
ATOM     43  O   UNL     1       8.694  -0.109  26.027  0.00  0.00    -0.158 OA
ATOM     44  H   UNL     1       6.609  -1.014  26.441  0.00  0.00    +0.233 HD
ENDBRANCH  39  41
ENDBRANCH  38  39
ENDBRANCH   4  38
TORSDOF 8
ENDMDL
