REMARK  Name = =
REMARK  3 active torsions:
REMARK  status: ('A' for Active; 'I' for Inactive)
REMARK    1  A    between atoms: C_1  and  O_14
REMARK    2  A    between atoms: C_3  and  C_7
REMARK    3  A    between atoms: C_4  and  C_15
REMARK                            x       y       z     vdW  Elec       q    Type
REMARK                         _______ _______ _______ _____ _____    ______ ____
ROOT
ATOM      1  C   UNL     1      52.024 156.857  29.232  0.00  0.00    +0.133 C 
ATOM      2  C   UNL     1      52.275 158.175  29.606  0.00  0.00    +0.032 C 
ATOM      3  C   UNL     1      51.301 158.989  30.120  0.00  0.00    -0.015 C 
ATOM      4  C   UNL     1      50.019 158.509  30.281  0.00  0.00    +0.038 C 
ATOM      5  C   UNL     1      49.734 157.209  29.920  0.00  0.00    +0.006 C 
ATOM      6  C   UNL     1      50.734 156.415  29.407  0.00  0.00    +0.037 C 
ENDROOT
BRANCH   3   7
ATOM      7  C   UNL     1      51.590 160.405  30.528  0.00  0.00    +0.038 C 
ATOM      8  C   UNL     1      53.082 160.533  30.671  0.00  0.00    +0.073 C 
ATOM      9  N   UNL     1      53.592 161.835  30.867  0.00  0.00    -0.297 NA
ATOM     10  C   UNL     1      52.706 162.932  30.841  0.00  0.00    +0.069 C 
ATOM     11  C   UNL     1      51.935 162.997  32.139  0.00  0.00    +0.017 C 
ATOM     12  C   UNL     1      50.676 162.180  31.927  0.00  0.00    +0.002 C 
ATOM     13  C   UNL     1      50.984 160.700  31.884  0.00  0.00    +0.006 C 
ATOM     14  H   UNL     1      54.287 161.996  30.138  0.00  0.00    +0.123 HD
ENDBRANCH   3   7
BRANCH   1  15
ATOM     15  O   UNL     1      53.009 156.033  28.712  0.00  0.00    -0.506 OA
ATOM     16  H   UNL     1      52.803 155.151  28.471  0.00  0.00    +0.292 HD
ENDBRANCH   1  15
BRANCH   4  17
ATOM     17  C   UNL     1      48.942 159.326  30.815  0.00  0.00    +0.234 C 
ATOM     18  O   UNL     1      47.800 158.820  30.925  0.00  0.00    -0.283 OA
ENDBRANCH   4  17
TORSDOF 3
