REMARK  Name = =
REMARK  4 active torsions:
REMARK  status: ('A' for Active; 'I' for Inactive)
REMARK    1  A    between atoms: C_1  and  O_16
REMARK    2  A    between atoms: C_3  and  C_7
REMARK    3  A    between atoms: C_4  and  C_14
REMARK    4  A    between atoms: O_16  and  C_17
REMARK                            x       y       z     vdW  Elec       q    Type
REMARK                         _______ _______ _______ _____ _____    ______ ____
ROOT
ATOM      1  C   UNL     1      50.922 156.986  29.474  0.00  0.00    +0.139 C 
ATOM      2  C   UNL     1      51.340 158.216  29.940  0.00  0.00    +0.033 C 
ATOM      3  C   UNL     1      50.446 159.155  30.501  0.00  0.00    -0.015 C 
ATOM      4  C   UNL     1      49.142 158.818  30.570  0.00  0.00    +0.038 C 
ATOM      5  C   UNL     1      48.672 157.569  30.107  0.00  0.00    +0.006 C 
ATOM      6  C   UNL     1      49.590 156.702  29.575  0.00  0.00    +0.037 C 
ENDROOT
BRANCH   3   7
ATOM      7  C   UNL     1      51.103 160.330  31.090  0.00  0.00    +0.038 C 
ATOM      8  C   UNL     1      52.598 160.385  30.820  0.00  0.00    +0.073 C 
ATOM      9  N   UNL     1      53.004 161.644  30.244  0.00  0.00    -0.297 NA
ATOM     10  C   UNL     1      53.346 162.676  31.149  0.00  0.00    +0.069 C 
ATOM     11  C   UNL     1      52.144 163.319  31.811  0.00  0.00    +0.017 C 
ATOM     12  C   UNL     1      51.235 162.317  32.438  0.00  0.00    +0.002 C 
ATOM     13  C   UNL     1      50.421 161.595  31.302  0.00  0.00    +0.006 C 
ATOM     14  H   UNL     1      52.234 161.982  29.666  0.00  0.00    +0.123 HD
ENDBRANCH   3   7
BRANCH   4  15
ATOM     15  C   UNL     1      48.142 159.752  31.002  0.00  0.00    +0.234 C 
ATOM     16  O   UNL     1      47.048 159.261  31.464  0.00  0.00    -0.283 OA
ENDBRANCH   4  15
BRANCH   1  17
ATOM     17  O   UNL     1      51.852 156.111  28.937  0.00  0.00    -0.475 OA
BRANCH  17  18
ATOM     18  C   UNL     1      51.664 155.210  27.896  0.00  0.00    +0.188 C 
ATOM     19  C   UNL     1      52.511 155.519  26.684  0.00  0.00    +0.049 C 
ATOM     20  C   UNL     1      52.485 154.334  25.742  0.00  0.00    +0.009 C 
ATOM     21  C   UNL     1      53.178 153.147  26.368  0.00  0.00    +0.026 C 
ATOM     22  C   UNL     1      52.561 152.901  27.699  0.00  0.00    -0.027 C 
ATOM     23  C   UNL     1      51.889 153.801  28.387  0.00  0.00    +0.012 C 
ENDBRANCH  17  18
ENDBRANCH   1  17
TORSDOF 4
