REMARK  Name = =
REMARK  8 active torsions:
REMARK  status: ('A' for Active; 'I' for Inactive)
REMARK    1  A    between atoms: C_1  and  O_29
REMARK    2  A    between atoms: C_2  and  S_7
REMARK    3  A    between atoms: C_3  and  C_20
REMARK    4  A    between atoms: C_4  and  C_27
REMARK    5  A    between atoms: C_10  and  C_17
REMARK    6  A    between atoms: C_17  and  O_19
REMARK    7  A    between atoms: O_29  and  C_30
REMARK    8  A    between atoms: C_30  and  N_36
REMARK                            x       y       z     vdW  Elec       q    Type
REMARK                         _______ _______ _______ _____ _____    ______ ____
ROOT
ATOM      1  C   UNL     1      62.557 164.234  39.687  0.00  0.00    +0.145 C 
ATOM      2  C   UNL     1      62.791 165.531  39.225  0.00  0.00    +0.049 C 
ATOM      3  C   UNL     1      63.734 166.393  39.850  0.00  0.00    -0.010 C 
ATOM      4  C   UNL     1      64.386 165.872  40.924  0.00  0.00    +0.039 C 
ATOM      5  C   UNL     1      64.136 164.561  41.380  0.00  0.00    +0.006 C 
ATOM      6  C   UNL     1      63.233 163.768  40.759  0.00  0.00    +0.038 C 
ENDROOT
BRANCH   2   7
ATOM      7  S   UNL     1      61.889 166.076  37.789  0.00  0.00    -0.132 S 
ATOM      8  C   UNL     1      60.565 165.040  37.234  0.00  0.00    +0.081 C 
ATOM      9  C   UNL     1      59.939 165.617  36.034  0.00  0.00    +0.007 C 
ATOM     10  C   UNL     1      60.569 166.290  35.088  0.00  0.00    +0.127 C 
ATOM     11  N   UNL     1      61.978 166.522  35.152  0.00  0.00    -0.246 N 
ATOM     12  C   UNL     1      62.594 166.712  36.436  0.00  0.00    +0.133 C 
ATOM     13  C   UNL     1      63.878 166.339  35.858  0.00  0.00    +0.117 C 
ATOM     14  C   UNL     1      63.254 166.695  34.558  0.00  0.00    +0.233 C 
ATOM     15  O   UNL     1      63.647 167.015  33.413  0.00  0.00    -0.274 OA
BRANCH  10  16
ATOM     16  C   UNL     1      59.843 166.844  33.934  0.00  0.00    +0.352 C 
ATOM     17  O   UNL     1      58.595 166.825  33.981  0.00  0.00    -0.244 OA
BRANCH  16  18
ATOM     18  O   UNL     1      60.476 167.371  32.824  0.00  0.00    -0.476 OA
ATOM     19  H   UNL     1      61.412 167.388  32.783  0.00  0.00    +0.295 HD
ENDBRANCH  16  18
ENDBRANCH  10  16
ENDBRANCH   2   7
BRANCH   3  20
ATOM     20  C   UNL     1      64.044 167.711  39.213  0.00  0.00    +0.039 C 
ATOM     21  C   UNL     1      63.768 168.829  40.065  0.00  0.00    +0.073 C 
ATOM     22  N   UNL     1      63.164 170.090  39.583  0.00  0.00    -0.297 NA
ATOM     23  C   UNL     1      64.103 170.824  38.663  0.00  0.00    +0.069 C 
ATOM     24  C   UNL     1      65.034 169.859  38.246  0.00  0.00    +0.017 C 
ATOM     25  C   UNL     1      65.863 168.810  37.805  0.00  0.00    +0.002 C 
ATOM     26  C   UNL     1      65.552 167.609  38.745  0.00  0.00    +0.006 C 
ATOM     27  H   UNL     1      62.950 170.684  40.384  0.00  0.00    +0.123 HD
ENDBRANCH   3  20
BRANCH   4  28
ATOM     28  C   UNL     1      65.397 166.613  41.614  0.00  0.00    +0.234 C 
ATOM     29  O   UNL     1      66.618 166.220  41.557  0.00  0.00    -0.283 OA
ENDBRANCH   4  28
BRANCH   1  30
ATOM     30  O   UNL     1      61.624 163.474  39.011  0.00  0.00    -0.465 OA
BRANCH  30  31
ATOM     31  C   UNL     1      60.997 162.291  39.388  0.00  0.00    +0.201 C 
ATOM     32  C   UNL     1      61.990 161.186  39.508  0.00  0.00    +0.061 C 
ATOM     33  C   UNL     1      61.838 160.206  40.592  0.00  0.00    +0.010 C 
ATOM     34  C   UNL     1      61.221 160.613  41.863  0.00  0.00    +0.026 C 
ATOM     35  C   UNL     1      60.253 161.691  41.702  0.00  0.00    -0.026 C 
ATOM     36  C   UNL     1      60.162 162.420  40.621  0.00  0.00    +0.024 C 
BRANCH  31  37
ATOM     37  N   UNL     1      59.996 161.987  38.341  0.00  0.00    -0.238 NA
ATOM     38  C   UNL     1      59.300 160.758  38.630  0.00  0.00    +0.093 C 
ATOM     39  C   UNL     1      58.878 160.077  37.349  0.00  0.00    +0.086 C 
ATOM     40  N   UNL     1      58.373 161.102  36.445  0.00  0.00    -0.295 NA
ATOM     41  C   UNL     1      59.392 162.049  36.039  0.00  0.00    +0.086 C 
ATOM     42  C   UNL     1      60.561 161.911  37.023  0.00  0.00    +0.093 C 
ATOM     43  H   UNL     1      57.625 161.611  36.916  0.00  0.00    +0.123 HD
ENDBRANCH  31  37
ENDBRANCH  30  31
ENDBRANCH   1  30
TORSDOF 8
REMARK  Name = =
REMARK  8 active torsions:
REMARK  status: ('A' for Active; 'I' for Inactive)
REMARK    1  A    between atoms: C_1  and  O_29
REMARK    2  A    between atoms: C_2  and  S_7
REMARK    3  A    between atoms: C_3  and  C_20
REMARK    4  A    between atoms: C_4  and  C_27
REMARK    5  A    between atoms: C_10  and  C_17
REMARK    6  A    between atoms: C_17  and  O_19
REMARK    7  A    between atoms: O_29  and  C_30
REMARK    8  A    between atoms: C_30  and  N_36
REMARK                            x       y       z     vdW  Elec       q    Type
REMARK                         _______ _______ _______ _____ _____    ______ ____
ROOT
ATOM      1  H   UNK     1      60.857 167.449  38.427  0.00  0.00    +0.000 HD
ENDROOT
TORSDOF 0
