REMARK  Name = =
REMARK  0 active torsions:
REMARK  status: ('A' for Active; 'I' for Inactive)
REMARK                            x       y       z     vdW  Elec       q    Type
REMARK                         _______ _______ _______ _____ _____    ______ ____
ROOT
ATOM      1  N   UNL     1      51.717 155.216  28.347  0.00  0.00    -0.242 NA
ATOM      2  C   UNL     1      50.749 155.418  29.260  0.00  0.00    +0.099 C 
ATOM      3  C   UNL     1      50.738 156.666  29.852  0.00  0.00    +0.021 C 
ATOM      4  C   UNL     1      51.656 157.646  29.533  0.00  0.00    +0.003 C 
ATOM      5  C   UNL     1      52.636 157.399  28.587  0.00  0.00    +0.021 C 
ATOM      6  C   UNL     1      52.628 156.147  28.010  0.00  0.00    +0.099 C 
ENDROOT
TORSDOF 0
