REMARK  Name = =
REMARK  0 active torsions:
REMARK  status: ('A' for Active; 'I' for Inactive)
REMARK                            x       y       z     vdW  Elec       q    Type
REMARK                         _______ _______ _______ _____ _____    ______ ____
ROOT
ATOM      1  N   UNL     1      52.102 155.760  28.295  0.00  0.00    -0.214 N 
ATOM      2  C   UNL     1      51.358 154.887  29.179  0.00  0.00    +0.112 C 
ATOM      3  C   UNL     1      50.860 156.158  29.842  0.00  0.00    +0.108 C 
ATOM      4  C   UNL     1      51.931 156.895  29.129  0.00  0.00    +0.234 C 
ATOM      5  O   UNL     1      52.459 158.033  29.224  0.00  0.00    -0.274 OA
ATOM      6  C   UNL     1      52.753 155.553  27.057  0.00  0.00    +0.307 C 
ATOM      7  O   UNL     1      53.332 156.546  26.515  0.00  0.00    -0.252 OA
ATOM      8  N   UNL     1      52.752 154.270  26.453  0.00  0.00    -0.313 N 
ATOM      9  H   UNL     1      52.295 153.518  26.895  0.00  0.00    +0.146 HD
ATOM     10  H   UNL     1      53.208 154.131  25.592  0.00  0.00    +0.146 HD
ENDROOT
TORSDOF 0
