REMARK  Name = =
REMARK  1 active torsions:
REMARK  status: ('A' for Active; 'I' for Inactive)
REMARK    1  A    between atoms: C_1  and  C_18
REMARK                            x       y       z     vdW  Elec       q    Type
REMARK                         _______ _______ _______ _____ _____    ______ ____
ROOT
ATOM      1  C   UNL     1      53.099 155.738  26.913  0.00  0.00    +0.095 C 
ATOM      2  N   UNL     1      53.779 156.822  26.692  0.00  0.00    -0.259 NA
ATOM      3  C   UNL     1      54.877 157.090  25.793  0.00  0.00    +0.210 C 
ATOM      4  C   UNL     1      54.624 156.561  24.427  0.00  0.00    +0.251 C 
ATOM      5  O   UNL     1      54.882 157.347  23.501  0.00  0.00    -0.273 OA
ATOM      6  N   UNL     1      54.132 155.291  23.997  0.00  0.00    -0.282 N 
ATOM      7  C   UNL     1      53.757 154.264  24.952  0.00  0.00    +0.052 C 
ATOM      8  C   UNL     1      53.337 154.463  26.268  0.00  0.00    +0.032 C 
ATOM      9  C   UNL     1      53.080 153.372  27.069  0.00  0.00    +0.003 C 
ATOM     10  C   UNL     1      53.247 152.116  26.522  0.00  0.00    +0.000 C 
ATOM     11  C   UNL     1      53.659 151.899  25.221  0.00  0.00    +0.001 C 
ATOM     12  C   UNL     1      53.914 152.999  24.438  0.00  0.00    +0.015 C 
ATOM     13  H   UNL     1      54.045 155.108  23.033  0.00  0.00    +0.155 HD
ENDROOT
BRANCH   1  19
ATOM     14  N   UNL     1      51.042 154.922  28.032  0.00  0.00    -0.242 NA
ATOM     15  C   UNL     1      50.127 155.079  28.993  0.00  0.00    +0.099 C 
ATOM     16  C   UNL     1      50.131 156.111  29.900  0.00  0.00    +0.021 C 
ATOM     17  C   UNL     1      51.152 157.025  29.786  0.00  0.00    +0.003 C 
ATOM     18  C   UNL     1      52.076 156.836  28.788  0.00  0.00    +0.021 C 
ATOM     19  C   UNL     1      52.035 155.767  27.882  0.00  0.00    +0.099 C 
ENDBRANCH   1  19
TORSDOF 1
