REMARK  Name = =
REMARK  3 active torsions:
REMARK  status: ('A' for Active; 'I' for Inactive)
REMARK    1  A    between atoms: C_1  and  N_11
REMARK    2  A    between atoms: C_9  and  O_20
REMARK    3  A    between atoms: N_11  and  N_19
REMARK                            x       y       z     vdW  Elec       q    Type
REMARK                         _______ _______ _______ _____ _____    ______ ____
ROOT
ATOM      1  C   UNL     1      53.181 155.360  27.188  0.00  0.00    +0.082 C 
ATOM      2  C   UNL     1      53.471 154.515  26.145  0.00  0.00    +0.096 C 
ATOM      3  N   UNL     1      54.001 154.955  24.996  0.00  0.00    -0.243 NA
ATOM      4  C   UNL     1      54.300 154.169  23.949  0.00  0.00    +0.099 C 
ATOM      5  C   UNL     1      54.061 152.815  24.022  0.00  0.00    +0.021 C 
ATOM      6  C   UNL     1      53.518 152.302  25.172  0.00  0.00    +0.003 C 
ATOM      7  C   UNL     1      53.225 153.140  26.225  0.00  0.00    +0.022 C 
ATOM      8  C   UNL     1      52.679 152.675  27.401  0.00  0.00    +0.038 C 
ATOM      9  C   UNL     1      52.388 153.525  28.449  0.00  0.00    +0.135 C 
ATOM     10  C   UNL     1      52.640 154.877  28.347  0.00  0.00    +0.054 C 
ENDROOT
BRANCH   1  11
ATOM     11  N   UNL     1      53.454 156.741  27.046  0.00  0.00    -0.261 N 
ATOM     12  H   UNL     1      53.978 157.040  26.268  0.00  0.00    +0.170 HD
BRANCH  11  20
ATOM     13  N   UNL     1      51.312 158.536  29.596  0.00  0.00    -0.213 N 
ATOM     14  C   UNL     1      51.791 159.797  30.130  0.00  0.00    +0.112 C 
ATOM     15  C   UNL     1      50.930 159.539  31.326  0.00  0.00    +0.108 C 
ATOM     16  C   UNL     1      50.163 158.670  30.414  0.00  0.00    +0.234 C 
ATOM     17  O   UNL     1      49.004 158.206  30.327  0.00  0.00    -0.274 OA
ATOM     18  C   UNL     1      51.781 157.578  28.661  0.00  0.00    +0.325 C 
ATOM     19  O   UNL     1      51.081 156.567  28.432  0.00  0.00    -0.251 OA
ATOM     20  N   UNL     1      53.009 157.702  27.967  0.00  0.00    -0.220 N 
ATOM     21  H   UNL     1      53.572 158.492  28.137  0.00  0.00    +0.174 HD
ENDBRANCH  11  20
ENDBRANCH   1  11
BRANCH   9  22
ATOM     22  O   UNL     1      51.840 153.052  29.627  0.00  0.00    -0.505 OA
ATOM     23  H   UNL     1      51.658 152.138  29.725  0.00  0.00    +0.292 HD
ENDBRANCH   9  22
TORSDOF 3
