REMARK  Name = =
REMARK  3 active torsions:
REMARK  status: ('A' for Active; 'I' for Inactive)
REMARK    1  A    between atoms: C_2  and  C_19
REMARK    2  A    between atoms: C_6  and  C_7
REMARK    3  A    between atoms: C_19  and  C_21
REMARK                            x       y       z     vdW  Elec       q    Type
REMARK                         _______ _______ _______ _____ _____    ______ ____
ROOT
ATOM      1  N   UNL     1      53.530 153.738  26.184  0.00  0.00    -0.248 NA
ATOM      2  C   UNL     1      53.814 153.456  24.917  0.00  0.00    +0.063 C 
ATOM      3  C   UNL     1      53.390 154.293  23.909  0.00  0.00    +0.015 C 
ATOM      4  C   UNL     1      52.674 155.408  24.269  0.00  0.00    +0.003 C 
ATOM      5  C   UNL     1      52.404 155.657  25.594  0.00  0.00    +0.021 C 
ATOM      6  C   UNL     1      52.824 154.834  26.591  0.00  0.00    +0.098 C 
ENDROOT
BRANCH   6   7
ATOM      7  C   UNL     1      52.514 154.910  27.994  0.00  0.00    +0.095 C 
ATOM      8  N   UNL     1      52.542 153.788  28.687  0.00  0.00    -0.259 NA
ATOM      9  C   UNL     1      52.261 153.585  30.120  0.00  0.00    +0.210 C 
ATOM     10  C   UNL     1      50.924 154.191  30.471  0.00  0.00    +0.251 C 
ATOM     11  O   UNL     1      50.059 153.435  30.968  0.00  0.00    -0.273 OA
ATOM     12  N   UNL     1      50.552 155.551  30.291  0.00  0.00    -0.282 N 
ATOM     13  C   UNL     1      51.349 156.528  29.587  0.00  0.00    +0.052 C 
ATOM     14  C   UNL     1      52.280 156.215  28.592  0.00  0.00    +0.032 C 
ATOM     15  C   UNL     1      53.090 157.192  28.028  0.00  0.00    +0.003 C 
ATOM     16  C   UNL     1      52.926 158.475  28.488  0.00  0.00    +0.000 C 
ATOM     17  C   UNL     1      51.988 158.786  29.481  0.00  0.00    +0.001 C 
ATOM     18  C   UNL     1      51.184 157.816  30.048  0.00  0.00    +0.015 C 
ATOM     19  H   UNL     1      49.694 155.847  30.672  0.00  0.00    +0.155 HD
ENDBRANCH   6   7
BRANCH   2  20
ATOM     20  C   UNL     1      54.591 152.245  24.520  0.00  0.00    +0.062 C 
ATOM     21  C   UNL     1      56.062 152.499  24.439  0.00  0.00    +0.011 C 
BRANCH  20  22
ATOM     22  C   UNL     1      54.324 151.180  25.585  0.00  0.00    -0.018 C 
ATOM     23  C   UNL     1      53.002 151.491  26.183  0.00  0.00    -0.009 C 
ATOM     24  C   UNL     1      51.972 150.671  26.192  0.00  0.00    +0.114 C 
ATOM     25  N   UNL     1      52.080 149.395  25.607  0.00  0.00    -0.328 N 
ATOM     26  C   UNL     1      53.303 149.003  25.009  0.00  0.00    +0.058 C 
ATOM     27  C   UNL     1      54.334 149.827  25.001  0.00  0.00    +0.011 C 
ATOM     28  H   UNL     1      51.311 148.780  25.613  0.00  0.00    +0.147 HD
ENDBRANCH  20  22
ENDBRANCH   2  20
TORSDOF 3
