REMARK  Name = =
REMARK  4 active torsions:
REMARK  status: ('A' for Active; 'I' for Inactive)
REMARK    1  A    between atoms: C_2  and  C_19
REMARK    2  A    between atoms: C_6  and  C_7
REMARK    3  A    between atoms: C_19  and  C_21
REMARK    4  A    between atoms: C_21  and  C_27
REMARK                            x       y       z     vdW  Elec       q    Type
REMARK                         _______ _______ _______ _____ _____    ______ ____
ROOT
ATOM      1  N   UNL     1      51.295 157.058  29.851  0.00  0.00    -0.248 NA
ATOM      2  C   UNL     1      50.442 157.917  30.424  0.00  0.00    +0.059 C 
ATOM      3  C   UNL     1      49.101 157.643  30.246  0.00  0.00    +0.015 C 
ATOM      4  C   UNL     1      48.698 156.526  29.507  0.00  0.00    +0.003 C 
ATOM      5  C   UNL     1      49.636 155.721  28.969  0.00  0.00    +0.021 C 
ATOM      6  C   UNL     1      51.005 155.987  29.141  0.00  0.00    +0.098 C 
ENDROOT
BRANCH   6   7
ATOM      7  C   UNL     1      51.919 155.037  28.525  0.00  0.00    +0.095 C 
ATOM      8  N   UNL     1      52.079 153.874  29.071  0.00  0.00    -0.259 NA
ATOM      9  C   UNL     1      52.894 152.727  28.711  0.00  0.00    +0.210 C 
ATOM     10  C   UNL     1      52.871 152.407  27.272  0.00  0.00    +0.251 C 
ATOM     11  O   UNL     1      52.740 151.209  26.982  0.00  0.00    -0.273 OA
ATOM     12  N   UNL     1      52.977 153.293  26.162  0.00  0.00    -0.282 N 
ATOM     13  C   UNL     1      53.081 154.716  26.252  0.00  0.00    +0.052 C 
ATOM     14  C   UNL     1      52.630 155.461  27.335  0.00  0.00    +0.032 C 
ATOM     15  C   UNL     1      52.865 156.823  27.288  0.00  0.00    +0.003 C 
ATOM     16  C   UNL     1      53.504 157.409  26.226  0.00  0.00    +0.000 C 
ATOM     17  C   UNL     1      53.942 156.654  25.159  0.00  0.00    +0.001 C 
ATOM     18  C   UNL     1      53.722 155.290  25.181  0.00  0.00    +0.015 C 
ATOM     19  H   UNL     1      52.979 152.894  25.262  0.00  0.00    +0.155 HD
ENDBRANCH   6   7
BRANCH   2  20
ATOM     20  C   UNL     1      50.878 159.092  31.210  0.00  0.00    +0.050 C 
ATOM     21  C   UNL     1      50.434 158.981  32.631  0.00  0.00    +0.007 C 
BRANCH  20  22
ATOM     22  C   UNL     1      50.496 160.395  30.545  0.00  0.00    +0.074 C 
ATOM     23  C   UNL     1      49.319 160.990  31.219  0.00  0.00    -0.004 C 
ATOM     24  C   UNL     1      48.153 161.204  30.627  0.00  0.00    +0.058 C 
ATOM     25  N   UNL     1      47.982 160.861  29.283  0.00  0.00    -0.311 N 
ATOM     26  C   UNL     1      49.040 160.288  28.547  0.00  0.00    +0.058 C 
ATOM     27  C   UNL     1      50.178 160.081  29.132  0.00  0.00    -0.004 C 
ATOM     28  H   UNL     1      47.115 161.021  28.846  0.00  0.00    +0.152 HD
BRANCH  22  29
ATOM     29  C   UNL     1      51.644 161.381  30.526  0.00  0.00    +0.145 C 
ATOM     30  O   UNL     1      52.750 160.833  29.920  0.00  0.00    -0.351 OA
ATOM     31  C   UNL     1      53.944 161.455  30.136  0.00  0.00    +0.147 C 
ATOM     32  C   UNL     1      53.832 162.831  30.779  0.00  0.00    +0.058 C 
ATOM     33  C   UNL     1      53.038 162.624  32.018  0.00  0.00    -0.026 C 
ATOM     34  C   UNL     1      51.939 161.896  31.890  0.00  0.00    -0.001 C 
ENDBRANCH  22  29
ENDBRANCH  20  22
ENDBRANCH   2  20
TORSDOF 4
