REMARK  Name = =
REMARK  12 active torsions:
REMARK  status: ('A' for Active; 'I' for Inactive)
REMARK    1  A    between atoms: S_1  and  P_2
REMARK    2  A    between atoms: S_1  and  C_9
REMARK    3  A    between atoms: P_2  and  O_13
REMARK    4  A    between atoms: P_2  and  O_22
REMARK    5  A    between atoms: O_13  and  P_14
REMARK    6  A    between atoms: P_14  and  O_16
REMARK    7  A    between atoms: P_14  and  O_17
REMARK    8  A    between atoms: O_17  and  P_18
REMARK    9  A    between atoms: P_18  and  O_20
REMARK   10  A    between atoms: P_18  and  O_21
REMARK   11  A    between atoms: O_22  and  C_23
REMARK   12  A    between atoms: C_23  and  O_25
REMARK                            x       y       z     vdW  Elec       q    Type
REMARK                         _______ _______ _______ _____ _____    ______ ____
ROOT
ATOM      1  P   UNL     1      51.088 159.318  29.692  0.00  0.00    +0.395 P 
ATOM      2  O   UNL     1      52.039 159.697  28.551  0.00  0.00    -0.246 OA
ENDROOT
BRANCH   1   3
ATOM      3  S   UNL     1      52.223 159.473  31.247  0.00  0.00    -0.079 S 
ATOM      4  H   UNL     1      53.248 158.580  31.194  0.00  0.00    +0.108 HD
BRANCH   3  10
ATOM      5  C   UNL     1      54.477 162.771  30.721  0.00  0.00    +0.016 C 
ATOM      6  C   UNL     1      54.096 161.447  30.771  0.00  0.00    +0.140 C 
ATOM      7  O   UNL     1      55.146 160.623  30.406  0.00  0.00    -0.475 OA
ATOM      8  C   UNL     1      56.023 161.415  29.588  0.00  0.00    +0.210 C 
ATOM      9  C   UNL     1      55.906 162.756  30.281  0.00  0.00    +0.077 C 
ATOM     10  C   UNL     1      52.827 161.145  31.145  0.00  0.00    +0.056 C 
ATOM     11  C   UNL     1      51.944 162.154  31.470  0.00  0.00    +0.009 C 
ATOM     12  C   UNL     1      52.345 163.494  31.414  0.00  0.00    +0.000 C 
ATOM     13  C   UNL     1      53.631 163.818  31.034  0.00  0.00    -0.001 C 
ENDBRANCH   3  10
ENDBRANCH   1   3
BRANCH   1  14
ATOM     14  O   UNL     1      50.529 157.750  29.534  0.00  0.00    -0.200 OA
BRANCH  14  15
ATOM     15  P   UNL     1      49.100 157.617  30.431  0.00  0.00    +0.491 P 
ATOM     16  O   UNL     1      47.963 158.016  29.512  0.00  0.00    -0.226 OA
BRANCH  15  17
ATOM     17  O   UNL     1      48.917 156.021  30.968  0.00  0.00    -0.302 OA
ATOM     18  H   UNL     1      48.860 155.427  30.203  0.00  0.00    +0.222 HD
ENDBRANCH  15  17
BRANCH  15  19
ATOM     19  O   UNL     1      49.196 158.620  31.766  0.00  0.00    -0.186 OA
BRANCH  19  20
ATOM     20  P   UNL     1      47.943 159.753  31.811  0.00  0.00    +0.481 P 
ATOM     21  O   UNL     1      48.218 160.718  32.943  0.00  0.00    -0.227 OA
BRANCH  20  22
ATOM     22  O   UNL     1      46.487 158.974  32.137  0.00  0.00    -0.302 OA
ATOM     23  H   UNL     1      46.569 158.467  32.960  0.00  0.00    +0.222 HD
ENDBRANCH  20  22
BRANCH  20  24
ATOM     24  O   UNL     1      47.871 160.656  30.387  0.00  0.00    -0.302 OA
ATOM     25  H   UNL     1      47.695 160.065  29.638  0.00  0.00    +0.222 HD
ENDBRANCH  20  24
ENDBRANCH  19  20
ENDBRANCH  15  19
ENDBRANCH  14  15
ENDBRANCH   1  14
BRANCH   1  26
ATOM     26  O   UNL     1      49.868 160.466  29.717  0.00  0.00    -0.261 OA
BRANCH  26  27
ATOM     27  C   UNL     1      49.700 160.969  28.436  0.00  0.00    +0.240 C 
ATOM     28  C   UNL     1      48.384 160.466  27.865  0.00  0.00    +0.067 C 
BRANCH  27  29
ATOM     29  O   UNL     1      49.703 162.358  28.405  0.00  0.00    -0.360 OA
ATOM     30  H   UNL     1      49.583 162.661  27.491  0.00  0.00    +0.213 HD
ENDBRANCH  27  29
ENDBRANCH  26  27
ENDBRANCH   1  26
TORSDOF 12
