REMARK  Name = =
REMARK  14 active torsions:
REMARK  status: ('A' for Active; 'I' for Inactive)
REMARK    1  A    between atoms: S_1  and  P_2
REMARK    2  A    between atoms: S_1  and  C_9
REMARK    3  A    between atoms: P_2  and  O_13
REMARK    4  A    between atoms: P_2  and  O_22
REMARK    5  A    between atoms: O_13  and  P_14
REMARK    6  A    between atoms: P_14  and  O_16
REMARK    7  A    between atoms: P_14  and  O_17
REMARK    8  A    between atoms: O_17  and  P_18
REMARK    9  A    between atoms: P_18  and  O_20
REMARK   10  A    between atoms: P_18  and  O_21
REMARK   11  A    between atoms: O_22  and  C_23
REMARK   12  A    between atoms: C_23  and  C_25
REMARK   13  A    between atoms: C_23  and  O_30
REMARK   14  A    between atoms: N_27  and  N_28
REMARK                            x       y       z     vdW  Elec       q    Type
REMARK                         _______ _______ _______ _____ _____    ______ ____
ROOT
ATOM      1  P   UNL     1      52.113 160.862  31.260  0.00  0.00    +0.395 P 
ATOM      2  O   UNL     1      51.476 159.774  32.139  0.00  0.00    -0.246 OA
ENDROOT
BRANCH   1   3
ATOM      3  S   UNL     1      50.704 162.173  31.134  0.00  0.00    -0.079 S 
ATOM      4  H   UNL     1      51.039 163.165  30.266  0.00  0.00    +0.108 HD
BRANCH   3  10
ATOM      5  C   UNL     1      47.276 160.016  30.864  0.00  0.00    +0.016 C 
ATOM      6  C   UNL     1      48.338 160.735  31.352  0.00  0.00    +0.140 C 
ATOM      7  O   UNL     1      48.229 160.843  32.750  0.00  0.00    -0.475 OA
ATOM      8  C   UNL     1      47.423 159.758  33.174  0.00  0.00    +0.210 C 
ATOM      9  C   UNL     1      46.436 159.641  32.030  0.00  0.00    +0.077 C 
ATOM     10  C   UNL     1      49.305 161.229  30.520  0.00  0.00    +0.056 C 
ATOM     11  C   UNL     1      49.190 160.987  29.164  0.00  0.00    +0.009 C 
ATOM     12  C   UNL     1      48.130 160.266  28.655  0.00  0.00    +0.000 C 
ATOM     13  C   UNL     1      47.158 159.774  29.528  0.00  0.00    -0.001 C 
ENDBRANCH   3  10
ENDBRANCH   1   3
BRANCH   1  14
ATOM     14  O   UNL     1      52.342 160.170  29.759  0.00  0.00    -0.200 OA
BRANCH  14  15
ATOM     15  P   UNL     1      52.008 158.527  29.748  0.00  0.00    +0.491 P 
ATOM     16  O   UNL     1      53.012 157.825  30.612  0.00  0.00    -0.226 OA
BRANCH  15  17
ATOM     17  O   UNL     1      50.442 158.192  30.289  0.00  0.00    -0.302 OA
ATOM     18  H   UNL     1      50.341 158.506  31.201  0.00  0.00    +0.222 HD
ENDBRANCH  15  17
BRANCH  15  19
ATOM     19  O   UNL     1      52.166 157.974  28.160  0.00  0.00    -0.186 OA
BRANCH  19  20
ATOM     20  P   UNL     1      52.109 156.273  28.102  0.00  0.00    +0.481 P 
ATOM     21  O   UNL     1      52.396 155.890  26.660  0.00  0.00    -0.227 OA
BRANCH  20  22
ATOM     22  O   UNL     1      50.593 155.699  28.569  0.00  0.00    -0.302 OA
ATOM     23  H   UNL     1      50.422 155.950  29.490  0.00  0.00    +0.222 HD
ENDBRANCH  20  22
BRANCH  20  24
ATOM     24  O   UNL     1      53.322 155.706  29.143  0.00  0.00    -0.302 OA
ATOM     25  H   UNL     1      53.113 155.965  30.054  0.00  0.00    +0.222 HD
ENDBRANCH  20  24
ENDBRANCH  19  20
ENDBRANCH  15  19
ENDBRANCH  14  15
ENDBRANCH   1  14
BRANCH   1  26
ATOM     26  O   UNL     1      53.450 161.410  32.014  0.00  0.00    -0.258 OA
BRANCH  26  27
ATOM     27  C   UNL     1      54.346 162.156  31.289  0.00  0.00    +0.264 C 
ATOM     28  C   UNL     1      55.437 161.347  30.640  0.00  0.00    +0.072 C 
BRANCH  27  29
ATOM     29  C   UNL     1      53.672 162.997  30.274  0.00  0.00    +0.295 C 
ATOM     30  O   UNL     1      53.347 162.505  29.146  0.00  0.00    -0.268 OA
ATOM     31  N   UNL     1      53.386 164.356  30.555  0.00  0.00    -0.166 N 
ATOM     32  H   UNL     1      53.628 164.757  31.421  0.00  0.00    +0.181 HD
BRANCH  31  33
ATOM     33  N   UNL     1      52.742 165.119  29.552  0.00  0.00    +0.049 NA
ATOM     34  O   UNL     1      52.457 166.312  29.723  0.00  0.00    -0.126 OA
ENDBRANCH  31  33
ENDBRANCH  27  29
BRANCH  27  35
ATOM     35  O   UNL     1      54.973 163.017  32.191  0.00  0.00    -0.357 OA
ATOM     36  H   UNL     1      55.426 162.497  32.873  0.00  0.00    +0.213 HD
ENDBRANCH  27  35
ENDBRANCH  26  27
ENDBRANCH   1  26
TORSDOF 14
