REMARK  Name = =
REMARK  17 active torsions:
REMARK  status: ('A' for Active; 'I' for Inactive)
REMARK    1  A    between atoms: S_1  and  P_2
REMARK    2  A    between atoms: S_1  and  C_9
REMARK    3  A    between atoms: P_2  and  O_13
REMARK    4  A    between atoms: P_2  and  O_28
REMARK    5  A    between atoms: O_13  and  C_14
REMARK    6  A    between atoms: C_14  and  C_16
REMARK    7  A    between atoms: C_14  and  O_27
REMARK    8  A    between atoms: N_18  and  N_19
REMARK    9  A    between atoms: N_18  and  N_25
REMARK   10  A    between atoms: C_20  and  C_22
REMARK   11  A    between atoms: C_22  and  O_24
REMARK   12  A    between atoms: O_28  and  P_29
REMARK   13  A    between atoms: P_29  and  O_31
REMARK   14  A    between atoms: P_29  and  O_32
REMARK   15  A    between atoms: O_32  and  P_33
REMARK   16  A    between atoms: P_33  and  O_35
REMARK   17  A    between atoms: P_33  and  O_36
REMARK                            x       y       z     vdW  Elec       q    Type
REMARK                         _______ _______ _______ _____ _____    ______ ____
ROOT
ATOM      1  P   UNL     1      51.729 159.738  30.693  0.00  0.00    +0.395 P 
ATOM      2  O   UNL     1      51.419 160.391  32.049  0.00  0.00    -0.246 OA
ENDROOT
BRANCH   1   3
ATOM      3  S   UNL     1      50.281 160.399  29.605  0.00  0.00    -0.079 S 
ATOM      4  H   UNL     1      50.486 161.697  29.255  0.00  0.00    +0.108 HD
BRANCH   3  10
ATOM      5  C   UNL     1      47.663 160.755  32.677  0.00  0.00    +0.016 C 
ATOM      6  C   UNL     1      48.783 160.917  31.874  0.00  0.00    +0.140 C 
ATOM      7  O   UNL     1      49.651 161.788  32.482  0.00  0.00    -0.475 OA
ATOM      8  C   UNL     1      49.028 162.395  33.604  0.00  0.00    +0.210 C 
ATOM      9  C   UNL     1      47.803 161.572  33.915  0.00  0.00    +0.077 C 
ATOM     10  C   UNL     1      48.856 160.240  30.686  0.00  0.00    +0.056 C 
ATOM     11  C   UNL     1      47.820 159.419  30.312  0.00  0.00    +0.009 C 
ATOM     12  C   UNL     1      46.702 159.247  31.096  0.00  0.00    +0.000 C 
ATOM     13  C   UNL     1      46.611 159.924  32.307  0.00  0.00    -0.001 C 
ENDBRANCH   3  10
ENDBRANCH   1   3
BRANCH   1  14
ATOM     14  O   UNL     1      51.649 158.066  30.798  0.00  0.00    -0.200 OA
BRANCH  14  15
ATOM     15  P   UNL     1      51.702 157.349  29.272  0.00  0.00    +0.491 P 
ATOM     16  O   UNL     1      50.481 156.449  29.125  0.00  0.00    -0.226 OA
BRANCH  15  17
ATOM     17  O   UNL     1      51.656 158.468  28.032  0.00  0.00    -0.302 OA
ATOM     18  H   UNL     1      50.871 159.029  28.132  0.00  0.00    +0.222 HD
ENDBRANCH  15  17
BRANCH  15  19
ATOM     19  O   UNL     1      53.071 156.401  29.063  0.00  0.00    -0.186 OA
BRANCH  19  20
ATOM     20  P   UNL     1      52.724 155.157  27.991  0.00  0.00    +0.481 P 
ATOM     21  O   UNL     1      51.244 155.050  27.683  0.00  0.00    -0.227 OA
BRANCH  20  22
ATOM     22  O   UNL     1      53.538 155.413  26.529  0.00  0.00    -0.302 OA
ATOM     23  H   UNL     1      54.490 155.485  26.698  0.00  0.00    +0.222 HD
ENDBRANCH  20  22
BRANCH  20  24
ATOM     24  O   UNL     1      53.213 153.653  28.597  0.00  0.00    -0.302 OA
ATOM     25  H   UNL     1      52.760 153.480  29.437  0.00  0.00    +0.222 HD
ENDBRANCH  20  24
ENDBRANCH  19  20
ENDBRANCH  15  19
ENDBRANCH  14  15
ENDBRANCH   1  14
BRANCH   1  26
ATOM     26  O   UNL     1      53.224 160.242  30.121  0.00  0.00    -0.258 OA
BRANCH  26  27
ATOM     27  C   UNL     1      53.656 161.271  30.956  0.00  0.00    +0.265 C 
ATOM     28  C   UNL     1      53.754 160.782  32.403  0.00  0.00    +0.072 C 
BRANCH  27  29
ATOM     29  C   UNL     1      54.969 161.832  30.610  0.00  0.00    +0.315 C 
ATOM     30  O   UNL     1      56.059 161.306  31.036  0.00  0.00    -0.266 OA
ATOM     31  N   UNL     1      55.047 162.982  29.792  0.00  0.00    -0.062 N 
BRANCH  31  32
ATOM     32  N   UNL     1      56.290 163.595  29.473  0.00  0.00    -0.199 N 
ATOM     33  C   UNL     1      57.132 163.172  28.434  0.00  0.00    +0.339 C 
ATOM     34  O   UNL     1      56.759 162.175  27.735  0.00  0.00    -0.261 OA
ATOM     35  H   UNL     1      56.578 164.365  30.016  0.00  0.00    +0.176 HD
BRANCH  33  36
ATOM     36  C   UNL     1      58.402 163.809  28.108  0.00  0.00    +0.394 C 
ATOM     37  O   UNL     1      58.614 164.919  28.700  0.00  0.00    -0.240 OA
BRANCH  36  38
ATOM     38  O   UNL     1      59.349 163.321  27.253  0.00  0.00    -0.474 OA
ATOM     39  H   UNL     1      59.207 162.507  26.811  0.00  0.00    +0.296 HD
ENDBRANCH  36  38
ENDBRANCH  33  36
ENDBRANCH  31  32
BRANCH  31  40
ATOM     40  N   UNL     1      53.912 163.586  29.269  0.00  0.00    +0.071 NA
ATOM     41  O   UNL     1      53.540 164.741  29.522  0.00  0.00    -0.124 OA
ENDBRANCH  31  40
ENDBRANCH  27  29
BRANCH  27  42
ATOM     42  O   UNL     1      52.692 162.258  30.893  0.00  0.00    -0.357 OA
ATOM     43  H   UNL     1      51.828 161.881  31.122  0.00  0.00    +0.213 HD
ENDBRANCH  27  42
ENDBRANCH  26  27
ENDBRANCH   1  26
TORSDOF 17
