REMARK  Name = =
REMARK  0 active torsions:
REMARK  status: ('A' for Active; 'I' for Inactive)
REMARK                            x       y       z     vdW  Elec       q    Type
REMARK                         _______ _______ _______ _____ _____    ______ ____
ROOT
ATOM      1  C   UNL     1      51.095 155.262  29.117  0.00  0.00    +0.143 C 
ATOM      2  N   UNL     1      52.143 155.389  28.282  0.00  0.00    -0.143 NA
ATOM      3  N   UNL     1      52.789 156.539  28.195  0.00  0.00    -0.125 NA
ATOM      4  C   UNL     1      52.432 157.612  28.922  0.00  0.00    +0.222 C 
ATOM      5  N   UNL     1      51.388 157.507  29.761  0.00  0.00    -0.219 NA
ATOM      6  C   UNL     1      50.709 156.344  29.872  0.00  0.00    +0.123 C 
ENDROOT
TORSDOF 0
