REMARK  Name = =
REMARK  8 active torsions:
REMARK  status: ('A' for Active; 'I' for Inactive)
REMARK    1  A    between atoms: O_1  and  C_2
REMARK    2  A    between atoms: O_1  and  C_12
REMARK    3  A    between atoms: C_2  and  C_4
REMARK    4  A    between atoms: C_5  and  C_6
REMARK    5  A    between atoms: C_13  and  C_14
REMARK    6  A    between atoms: C_13  and  C_16
REMARK    7  A    between atoms: C_17  and  C_18
REMARK    8  A    between atoms: C_19  and  C_20
REMARK                            x       y       z     vdW  Elec       q    Type
REMARK                         _______ _______ _______ _____ _____    ______ ____
ROOT
ATOM      1  O   UNL     1      52.018 154.015  27.147  0.00  0.00    -0.418 OA
ENDROOT
BRANCH   1   2
ATOM      2  C   UNL     1      51.638 153.194  28.186  0.00  0.00    +0.346 C 
ATOM      3  O   UNL     1      51.694 151.907  27.994  0.00  0.00    -0.244 OA
BRANCH   2   4
ATOM      4  C   UNL     1      51.190 153.649  29.458  0.00  0.00    +0.084 C 
ATOM      5  C   UNL     1      51.282 154.798  30.013  0.00  0.00    +0.029 C 
BRANCH   5   6
ATOM      6  C   UNL     1      51.882 156.020  29.520  0.00  0.00    +0.122 C 
ATOM      7  N   UNL     1      52.515 156.137  28.360  0.00  0.00    -0.145 NA
ATOM      8  N   UNL     1      53.048 157.260  27.940  0.00  0.00    -0.125 NA
ATOM      9  C   UNL     1      53.000 158.398  28.652  0.00  0.00    +0.222 C 
ATOM     10  N   UNL     1      52.369 158.335  29.837  0.00  0.00    -0.219 NA
ATOM     11  C   UNL     1      51.814 157.199  30.291  0.00  0.00    +0.122 C 
ENDBRANCH   5   6
ENDBRANCH   2   4
ENDBRANCH   1   2
BRANCH   1  12
ATOM     12  C   UNL     1      52.939 153.563  26.239  0.00  0.00    +0.179 C 
ATOM     13  C   UNL     1      54.212 153.411  26.636  0.00  0.00    +0.016 C 
BRANCH  13  14
ATOM     14  C   UNL     1      54.570 153.734  28.028  0.00  0.00    +0.030 C 
ATOM     15  C   UNL     1      54.911 152.500  28.801  0.00  0.00    +0.005 C 
ENDBRANCH  13  14
BRANCH  13  16
ATOM     16  C   UNL     1      55.223 152.939  25.714  0.00  0.00    -0.001 C 
ATOM     17  C   UNL     1      56.445 152.676  26.138  0.00  0.00    -0.000 C 
BRANCH  17  18
ATOM     18  C   UNL     1      57.459 152.203  25.218  0.00  0.00    -0.000 C 
ATOM     19  C   UNL     1      58.467 151.502  25.631  0.00  0.00    -0.000 C 
BRANCH  19  20
ATOM     20  C   UNL     1      58.678 151.131  27.002  0.00  0.00    -0.000 C 
ATOM     21  C   UNL     1      59.812 150.488  27.329  0.00  0.00    +0.000 C 
ENDBRANCH  19  20
ENDBRANCH  17  18
ENDBRANCH  13  16
ENDBRANCH   1  12
TORSDOF 8
