REMARK  Name = =
REMARK  0 active torsions:
REMARK  status: ('A' for Active; 'I' for Inactive)
REMARK                            x       y       z     vdW  Elec       q    Type
REMARK                         _______ _______ _______ _____ _____    ______ ____
ROOT
ATOM      1  C   UNL     1      51.739 153.082  28.823  0.00  0.00    +0.021 C 
ATOM      2  C   UNL     1      52.416 153.711  27.801  0.00  0.00    +0.099 A 
ATOM      3  N   UNL     1      52.921 153.036  26.747  0.00  0.00    -0.242 NA
ATOM      4  C   UNL     1      53.584 153.633  25.742  0.00  0.00    +0.099 A 
ATOM      5  C   UNL     1      53.762 155.008  25.783  0.00  0.00    +0.099 A 
ATOM      6  N   UNL     1      53.268 155.714  26.825  0.00  0.00    -0.242 NA
ATOM      7  C   UNL     1      52.611 155.077  27.810  0.00  0.00    +0.099 A 
ATOM      8  C   UNL     1      52.099 155.787  28.884  0.00  0.00    +0.021 C 
ATOM      9  C   UNL     1      51.428 155.171  29.898  0.00  0.00    +0.002 C 
ATOM     10  C   UNL     1      51.237 153.803  29.884  0.00  0.00    +0.002 C 
ATOM     11  C   UNL     1      54.448 155.643  24.746  0.00  0.00    +0.021 C 
ATOM     12  C   UNL     1      54.950 154.913  23.684  0.00  0.00    +0.002 C 
ATOM     13  C   UNL     1      54.781 153.541  23.630  0.00  0.00    +0.002 C 
ATOM     14  C   UNL     1      54.098 152.933  24.667  0.00  0.00    +0.021 C 
ENDROOT
TORSDOF 0
