REMARK  Name = =
REMARK  0 active torsions:
REMARK  status: ('A' for Active; 'I' for Inactive)
REMARK                            x       y       z     vdW  Elec       q    Type
REMARK                         _______ _______ _______ _____ _____    ______ ____
ROOT
ATOM      1  C   UNL     1      52.740 157.011  27.417  0.00  0.00    +0.029 C 
ATOM      2  C   UNL     1      52.948 155.747  26.663  0.00  0.00    -0.023 C 
ATOM      3  C   UNL     1      52.257 154.630  27.069  0.00  0.00    -0.023 C 
ATOM      4  C   UNL     1      52.428 153.419  26.386  0.00  0.00    +0.036 C 
ATOM      5  C   UNL     1      53.279 153.321  25.311  0.00  0.00    +0.176 C 
ATOM      6  C   UNL     1      53.965 154.451  24.916  0.00  0.00    +0.176 C 
ATOM      7  C   UNL     1      53.807 155.665  25.583  0.00  0.00    +0.036 C 
ATOM      8  O   UNL     1      54.733 154.067  23.829  0.00  0.00    -0.435 OA
ATOM      9  C   UNL     1      54.318 152.812  23.329  0.00  0.00    +0.429 C 
ATOM     10  O   UNL     1      53.647 152.270  24.451  0.00  0.00    -0.435 OA
ATOM     11  C   UNL     1      51.332 154.694  28.215  0.00  0.00    +0.029 C 
ATOM     12  C   UNL     1      51.641 155.710  29.249  0.00  0.00    +0.037 C 
ATOM     13  C   UNL     1      52.695 156.696  28.900  0.00  0.00    +0.037 C 
ATOM     14  C   UNL     1      52.222 157.949  29.597  0.00  0.00    +0.143 C 
ATOM     15  O   UNL     1      50.846 157.891  29.387  0.00  0.00    -0.354 OA
ATOM     16  C   UNL     1      50.474 156.572  29.630  0.00  0.00    +0.143 C 
ENDROOT
TORSDOF 0
