REMARK  Name = =
REMARK  1 active torsions:
REMARK  status: ('A' for Active; 'I' for Inactive)
REMARK    1  A    between atoms: C_1  and  C_21
REMARK                            x       y       z     vdW  Elec       q    Type
REMARK                         _______ _______ _______ _____ _____    ______ ____
ROOT
ATOM      1  C   UNL     1      52.852 154.967  28.290  0.00  0.00    +0.065 C 
ATOM      2  C   UNL     1      53.237 155.397  26.909  0.00  0.00    -0.018 C 
ATOM      3  C   UNL     1      52.911 154.637  25.810  0.00  0.00    -0.022 C 
ATOM      4  C   UNL     1      53.291 155.053  24.541  0.00  0.00    +0.036 C 
ATOM      5  C   UNL     1      53.999 156.222  24.324  0.00  0.00    +0.176 C 
ATOM      6  C   UNL     1      54.324 156.983  25.435  0.00  0.00    +0.176 C 
ATOM      7  C   UNL     1      53.942 156.563  26.699  0.00  0.00    +0.036 C 
ATOM      8  O   UNL     1      55.018 158.073  24.923  0.00  0.00    -0.435 OA
ATOM      9  C   UNL     1      55.556 157.682  23.653  0.00  0.00    +0.429 C 
ATOM     10  O   UNL     1      54.491 156.853  23.178  0.00  0.00    -0.435 OA
ATOM     11  C   UNL     1      52.157 153.399  25.958  0.00  0.00    +0.029 C 
ATOM     12  C   UNL     1      52.519 152.690  27.227  0.00  0.00    +0.037 C 
ATOM     13  C   UNL     1      52.742 153.512  28.412  0.00  0.00    +0.042 C 
ATOM     14  C   UNL     1      51.955 152.916  29.493  0.00  0.00    +0.143 C 
ATOM     15  O   UNL     1      51.247 151.852  28.987  0.00  0.00    -0.354 OA
ATOM     16  C   UNL     1      51.323 151.837  27.628  0.00  0.00    +0.143 C 
ENDROOT
BRANCH   1  21
ATOM     17  N   UNL     1      52.290 159.528  30.162  0.00  0.00    -0.242 NA
ATOM     18  C   UNL     1      51.025 159.028  30.154  0.00  0.00    +0.099 C 
ATOM     19  C   UNL     1      50.770 157.746  29.690  0.00  0.00    +0.098 C 
ATOM     20  N   UNL     1      51.809 156.999  29.245  0.00  0.00    -0.248 NA
ATOM     21  C   UNL     1      51.677 155.736  28.770  0.00  0.00    +0.063 C 
ATOM     22  C   UNL     1      50.382 155.244  28.771  0.00  0.00    +0.015 C 
ATOM     23  C   UNL     1      49.294 155.965  29.214  0.00  0.00    +0.003 C 
ATOM     24  C   UNL     1      49.485 157.255  29.689  0.00  0.00    +0.019 C 
ATOM     25  C   UNL     1      48.464 158.032  30.145  0.00  0.00    +0.002 C 
ATOM     26  C   UNL     1      48.719 159.305  30.605  0.00  0.00    +0.002 C 
ATOM     27  C   UNL     1      50.010 159.828  30.618  0.00  0.00    +0.019 C 
ATOM     28  C   UNL     1      50.243 161.101  31.081  0.00  0.00    +0.003 C 
ATOM     29  C   UNL     1      51.531 161.560  31.069  0.00  0.00    +0.021 C 
ATOM     30  C   UNL     1      52.575 160.759  30.601  0.00  0.00    +0.099 C 
ENDBRANCH   1  21
TORSDOF 1
