REMARK  Name = =
REMARK  2 active torsions:
REMARK  status: ('A' for Active; 'I' for Inactive)
REMARK    1  A    between atoms: C_1  and  N_7
REMARK    2  A    between atoms: C_8  and  O_10
REMARK                            x       y       z     vdW  Elec       q    Type
REMARK                         _______ _______ _______ _____ _____    ______ ____
ROOT
ATOM      1  C   UNL     1      52.921 156.054  28.281  0.00  0.00    +0.135 C 
ATOM      2  N   UNL     1      52.454 155.117  29.218  0.00  0.00    -0.269 NA
ATOM      3  C   UNL     1      51.399 155.426  30.073  0.00  0.00    +0.143 C 
ATOM      4  N   UNL     1      50.539 156.433  29.483  0.00  0.00    -0.284 NA
ATOM      5  C   UNL     1      51.382 157.642  29.479  0.00  0.00    +0.073 C 
ATOM      6  C   UNL     1      52.359 157.427  28.352  0.00  0.00    +0.054 C 
ATOM      7  H   UNL     1      53.249 154.879  29.811  0.00  0.00    +0.126 HD
ATOM      8  H   UNL     1      49.701 156.574  30.048  0.00  0.00    +0.125 HD
ENDROOT
BRANCH   1   9
ATOM      9  N   UNL     1      52.694 155.461  26.958  0.00  0.00    -0.259 N 
ATOM     10  C   UNL     1      53.420 155.866  25.807  0.00  0.00    +0.399 C 
ATOM     11  O   UNL     1      54.281 156.777  25.997  0.00  0.00    -0.227 OA
ATOM     12  H   UNL     1      52.013 154.756  26.865  0.00  0.00    +0.154 HD
BRANCH  10  13
ATOM     13  O   UNL     1      53.212 155.310  24.547  0.00  0.00    -0.466 OA
ATOM     14  H   UNL     1      52.570 154.638  24.432  0.00  0.00    +0.297 HD
ENDBRANCH  10  13
ENDBRANCH   1   9
TORSDOF 2
