REMARK  Name = =
REMARK  3 active torsions:
REMARK  status: ('A' for Active; 'I' for Inactive)
REMARK    1  A    between atoms: C_1  and  S_15
REMARK    2  A    between atoms: S_15  and  C_16
REMARK    3  A    between atoms: C_19  and  O_22
REMARK                            x       y       z     vdW  Elec       q    Type
REMARK                         _______ _______ _______ _____ _____    ______ ____
ROOT
ATOM      1  C   UNL     1      53.339 153.269  28.783  0.00  0.00    +0.049 C 
ATOM      2  C   UNL     1      53.923 153.225  27.530  0.00  0.00    +0.105 A 
ATOM      3  N   UNL     1      53.144 153.620  26.512  0.00  0.00    -0.242 NA
ATOM      4  C   UNL     1      53.659 153.599  25.255  0.00  0.00    +0.099 A 
ATOM      5  C   UNL     1      54.955 153.176  25.070  0.00  0.00    +0.099 A 
ATOM      6  N   UNL     1      55.749 152.774  26.105  0.00  0.00    -0.242 NA
ATOM      7  C   UNL     1      55.228 152.799  27.342  0.00  0.00    +0.099 A 
ATOM      8  C   UNL     1      55.970 152.406  28.453  0.00  0.00    +0.021 C 
ATOM      9  C   UNL     1      55.404 152.445  29.709  0.00  0.00    +0.002 C 
ATOM     10  C   UNL     1      54.099 152.874  29.862  0.00  0.00    +0.008 C 
ATOM     11  C   UNL     1      55.448 153.167  23.775  0.00  0.00    +0.021 C 
ATOM     12  C   UNL     1      54.658 153.569  22.726  0.00  0.00    +0.002 C 
ATOM     13  C   UNL     1      53.357 153.995  22.896  0.00  0.00    +0.002 C 
ATOM     14  C   UNL     1      52.859 154.007  24.179  0.00  0.00    +0.021 C 
ENDROOT
BRANCH   1  15
ATOM     15  S   UNL     1      51.654 153.825  28.977  0.00  0.00    -0.085 S 
BRANCH  15  16
ATOM     16  C   UNL     1      51.548 155.575  29.230  0.00  0.00    +0.030 C 
ATOM     17  C   UNL     1      50.396 156.074  29.801  0.00  0.00    +0.010 C 
ATOM     18  C   UNL     1      50.260 157.445  30.022  0.00  0.00    +0.037 C 
ATOM     19  C   UNL     1      51.254 158.341  29.686  0.00  0.00    +0.134 C 
ATOM     20  C   UNL     1      52.409 157.843  29.115  0.00  0.00    +0.037 C 
ATOM     21  C   UNL     1      52.535 156.473  28.897  0.00  0.00    +0.010 C 
BRANCH  19  22
ATOM     22  O   UNL     1      51.125 159.716  29.904  0.00  0.00    -0.506 OA
ATOM     23  H   UNL     1      50.343 160.058  30.291  0.00  0.00    +0.292 HD
ENDBRANCH  19  22
ENDBRANCH  15  16
ENDBRANCH   1  15
TORSDOF 3
