REMARK  Name = =
REMARK  2 active torsions:
REMARK  status: ('A' for Active; 'I' for Inactive)
REMARK    1  A    between atoms: C_1  and  C_21
REMARK    2  A    between atoms: C_1  and  N_31
REMARK                            x       y       z     vdW  Elec       q    Type
REMARK                         _______ _______ _______ _____ _____    ______ ____
ROOT
ATOM      1  C   UNL     1      52.155 157.203  29.257  0.00  0.00    +0.117 C 
ATOM      2  C   UNL     1      51.021 158.163  29.374  0.00  0.00    -0.001 C 
ATOM      3  C   UNL     1      51.288 159.466  29.690  0.00  0.00    -0.021 C 
ATOM      4  C   UNL     1      50.213 160.350  29.795  0.00  0.00    +0.036 C 
ATOM      5  C   UNL     1      48.917 159.918  29.584  0.00  0.00    +0.176 C 
ATOM      6  C   UNL     1      48.644 158.613  29.267  0.00  0.00    +0.176 C 
ATOM      7  C   UNL     1      49.714 157.750  29.167  0.00  0.00    +0.038 C 
ATOM      8  O   UNL     1      47.276 158.430  29.106  0.00  0.00    -0.435 OA
ATOM      9  C   UNL     1      46.634 159.630  29.512  0.00  0.00    +0.429 C 
ATOM     10  O   UNL     1      47.680 160.578  29.624  0.00  0.00    -0.435 OA
ATOM     11  C   UNL     1      52.633 160.021  29.934  0.00  0.00    +0.029 C 
ATOM     12  C   UNL     1      53.652 158.996  30.271  0.00  0.00    +0.039 C 
ATOM     13  C   UNL     1      53.402 157.618  29.911  0.00  0.00    +0.058 C 
ATOM     14  C   UNL     1      54.672 157.160  29.260  0.00  0.00    +0.144 C 
ATOM     15  O   UNL     1      55.165 158.306  28.679  0.00  0.00    -0.354 OA
ATOM     16  C   UNL     1      54.996 159.295  29.629  0.00  0.00    +0.143 C 
ENDROOT
BRANCH   1  21
ATOM     17  N   UNL     1      53.372 153.109  26.735  0.00  0.00    -0.242 NA
ATOM     18  C   UNL     1      53.339 154.038  25.771  0.00  0.00    +0.099 C 
ATOM     19  C   UNL     1      53.024 155.361  26.103  0.00  0.00    +0.098 C 
ATOM     20  N   UNL     1      52.763 155.670  27.363  0.00  0.00    -0.246 NA
ATOM     21  C   UNL     1      52.445 156.881  27.840  0.00  0.00    +0.079 C 
ATOM     22  C   UNL     1      52.405 157.874  26.855  0.00  0.00    +0.017 C 
ATOM     23  C   UNL     1      52.668 157.606  25.530  0.00  0.00    +0.003 C 
ATOM     24  C   UNL     1      52.984 156.339  25.131  0.00  0.00    +0.019 C 
ATOM     25  C   UNL     1      53.259 155.990  23.830  0.00  0.00    +0.002 C 
ATOM     26  C   UNL     1      53.571 154.698  23.483  0.00  0.00    +0.002 C 
ATOM     27  C   UNL     1      53.609 153.730  24.455  0.00  0.00    +0.019 C 
ATOM     28  C   UNL     1      53.919 152.410  24.157  0.00  0.00    +0.003 C 
ATOM     29  C   UNL     1      53.944 151.476  25.170  0.00  0.00    +0.021 C 
ATOM     30  C   UNL     1      53.667 151.834  26.472  0.00  0.00    +0.099 C 
ENDBRANCH   1  21
BRANCH   1  31
ATOM     31  N   UNL     1      51.736 155.949  29.921  0.00  0.00    -0.267 N 
ATOM     32  C   UNL     1      52.135 154.604  29.738  0.00  0.00    +0.121 C 
ATOM     33  C   UNL     1      51.357 153.806  30.696  0.00  0.00    -0.000 C 
ATOM     34  C   UNL     1      50.558 154.570  31.397  0.00  0.00    +0.055 C 
ATOM     35  C   UNL     1      50.744 155.934  30.962  0.00  0.00    +0.250 C 
ATOM     36  O   UNL     1      50.144 156.945  31.413  0.00  0.00    -0.270 OA
ENDBRANCH   1  31
TORSDOF 2
