REMARK  Name = =
REMARK  5 active torsions:
REMARK  status: ('A' for Active; 'I' for Inactive)
REMARK    1  A    between atoms: C_1  and  N_7
REMARK    2  A    between atoms: C_1  and  N_18
REMARK    3  A    between atoms: C_12  and  O_17
REMARK    4  A    between atoms: N_18  and  S_21
REMARK    5  A    between atoms: C_19  and  O_28
REMARK                            x       y       z     vdW  Elec       q    Type
REMARK                         _______ _______ _______ _____ _____    ______ ____
ROOT
ATOM      1  C   UNL     1      52.102 156.255  28.600  0.00  0.00    +0.188 C 
ATOM      2  N   UNL     1      50.871 157.027  28.367  0.00  0.00    -0.255 NA
ATOM      3  C   UNL     1      51.313 158.429  28.397  0.00  0.00    +0.145 C 
ATOM      4  N   UNL     1      51.830 158.802  29.679  0.00  0.00    -0.284 NA
ATOM      5  C   UNL     1      51.779 157.687  30.574  0.00  0.00    +0.075 C 
ATOM      6  C   UNL     1      52.489 156.451  30.009  0.00  0.00    +0.072 C 
ATOM      7  H   UNL     1      50.465 156.795  27.461  0.00  0.00    +0.127 HD
ATOM      8  H   UNL     1      51.270 159.565  30.059  0.00  0.00    +0.125 HD
ENDROOT
BRANCH   1   9
ATOM      9  N   UNL     1      53.047 156.709  27.618  0.00  0.00    -0.228 N 
ATOM     10  C   UNL     1      53.264 156.362  26.359  0.00  0.00    +0.164 A 
ATOM     11  N   UNL     1      52.675 155.470  25.573  0.00  0.00    -0.197 NA
ATOM     12  C   UNL     1      53.046 155.264  24.304  0.00  0.00    +0.217 A 
ATOM     13  N   UNL     1      54.057 155.991  23.808  0.00  0.00    -0.178 NA
ATOM     14  C   UNL     1      54.701 156.919  24.554  0.00  0.00    +0.245 A 
ATOM     15  C   UNL     1      54.312 157.125  25.860  0.00  0.00    +0.168 A 
ATOM     16  N   UNL     1      54.698 157.920  26.860  0.00  0.00    -0.220 NA
ATOM     17  C   UNL     1      53.946 157.688  27.936  0.00  0.00    +0.171 C 
ATOM     18  N   UNL     1      52.395 154.302  23.492  0.00  0.00    -0.327 N 
ATOM     19  H   UNL     1      51.653 153.769  23.859  0.00  0.00    +0.145 HD
ATOM     20  H   UNL     1      52.685 154.166  22.561  0.00  0.00    +0.145 HD
BRANCH  14  21
ATOM     21  O   UNL     1      55.747 157.686  24.073  0.00  0.00    -0.491 OA
ATOM     22  H   UNL     1      56.041 157.576  23.190  0.00  0.00    +0.294 HD
ENDBRANCH  14  21
ENDBRANCH   1   9
BRANCH   1  23
ATOM     23  N   UNL     1      51.875 154.841  28.338  0.00  0.00    -0.186 N 
ATOM     24  C   UNL     1      50.528 154.411  28.254  0.00  0.00    +0.412 C 
ATOM     25  O   UNL     1      49.616 155.257  28.408  0.00  0.00    -0.225 OA
BRANCH  23  26
ATOM     26  S   UNL     1      53.079 153.710  28.132  0.00  0.00    -0.080 S 
ATOM     27  C   UNL     1      54.019 153.866  26.562  0.00  0.00    +0.147 C 
ATOM     28  C   UNL     1      54.281 152.464  26.250  0.00  0.00    +0.240 C 
ATOM     29  O   UNL     1      55.406 152.023  25.828  0.00  0.00    -0.274 OA
ATOM     30  N   UNL     1      53.135 151.675  26.477  0.00  0.00    -0.246 N 
ATOM     31  C   UNL     1      52.476 151.952  27.688  0.00  0.00    +0.275 C 
ATOM     32  O   UNL     1      51.689 151.358  28.421  0.00  0.00    -0.263 OA
ATOM     33  H   UNL     1      53.725 153.901  29.313  0.00  0.00    +0.111 HD
ATOM     34  H   UNL     1      52.823 150.990  25.843  0.00  0.00    +0.158 HD
ENDBRANCH  23  26
BRANCH  24  35
ATOM     35  O   UNL     1      50.192 153.064  28.004  0.00  0.00    -0.466 OA
ATOM     36  H   UNL     1      50.869 152.426  27.888  0.00  0.00    +0.297 HD
ENDBRANCH  24  35
ENDBRANCH   1  23
TORSDOF 5
