REMARK  Name = =
REMARK  6 active torsions:
REMARK  status: ('A' for Active; 'I' for Inactive)
REMARK    1  A    between atoms: N_1  and  S_4
REMARK    2  A    between atoms: N_1  and  C_25
REMARK    3  A    between atoms: C_2  and  O_42
REMARK    4  A    between atoms: C_5  and  C_11
REMARK    5  A    between atoms: C_25  and  N_31
REMARK    6  A    between atoms: C_36  and  O_41
REMARK                            x       y       z     vdW  Elec       q    Type
REMARK                         _______ _______ _______ _____ _____    ______ ____
ROOT
ATOM      1  N   UNL     1      52.412 154.984  26.365  0.00  0.00    -0.186 N 
ATOM      2  C   UNL     1      52.666 154.590  25.038  0.00  0.00    +0.412 C 
ATOM      3  O   UNL     1      52.767 155.437  24.129  0.00  0.00    -0.225 OA
ENDROOT
BRANCH   1   4
ATOM      4  S   UNL     1      52.237 156.670  26.725  0.00  0.00    -0.081 S 
ATOM      5  C   UNL     1      51.953 157.051  28.411  0.00  0.00    +0.128 C 
ATOM      6  C   UNL     1      53.301 157.195  29.002  0.00  0.00    +0.238 C 
ATOM      7  O   UNL     1      53.447 157.172  30.276  0.00  0.00    -0.274 OA
ATOM      8  N   UNL     1      54.318 157.344  28.080  0.00  0.00    -0.246 N 
ATOM      9  C   UNL     1      53.990 157.557  26.752  0.00  0.00    +0.275 C 
ATOM     10  O   UNL     1      54.417 158.062  25.745  0.00  0.00    -0.263 OA
ATOM     11  H   UNL     1      51.273 157.023  25.833  0.00  0.00    +0.111 HD
ATOM     12  H   UNL     1      55.260 157.300  28.362  0.00  0.00    +0.158 HD
BRANCH   5  13
ATOM     13  C   UNL     1      51.208 158.338  28.621  0.00  0.00    +0.019 C 
ATOM     14  C   UNL     1      50.125 158.054  29.604  0.00  0.00    +0.001 C 
ATOM     15  C   UNL     1      48.899 158.927  29.470  0.00  0.00    +0.000 C 
ATOM     16  C   UNL     1      48.053 158.580  30.703  0.00  0.00    +0.000 C 
ATOM     17  C   UNL     1      46.828 159.410  30.845  0.00  0.00    +0.000 C 
ATOM     18  C   UNL     1      46.802 159.936  32.289  0.00  0.00    +0.000 C 
ATOM     19  C   UNL     1      47.584 161.203  32.291  0.00  0.00    +0.003 C 
ATOM     20  C   UNL     1      48.720 161.220  33.311  0.00  0.00    +0.032 C 
ATOM     21  C   UNL     1      49.822 162.155  32.880  0.00  0.00    +0.142 C 
ATOM     22  O   UNL     1      51.089 161.696  33.174  0.00  0.00    -0.354 OA
ATOM     23  C   UNL     1      51.453 160.617  32.422  0.00  0.00    +0.142 C 
ATOM     24  C   UNL     1      51.855 160.948  30.996  0.00  0.00    +0.032 C 
ATOM     25  C   UNL     1      52.476 159.721  30.325  0.00  0.00    +0.003 C 
ATOM     26  C   UNL     1      52.035 159.530  28.919  0.00  0.00    +0.001 C 
ENDBRANCH   5  13
ENDBRANCH   1   4
BRANCH   1  27
ATOM     27  C   UNL     1      52.296 153.966  27.432  0.00  0.00    +0.188 C 
ATOM     28  N   UNL     1      53.298 154.223  28.382  0.00  0.00    -0.255 NA
ATOM     29  C   UNL     1      52.915 154.375  29.733  0.00  0.00    +0.145 C 
ATOM     30  N   UNL     1      51.621 154.978  29.917  0.00  0.00    -0.284 NA
ATOM     31  C   UNL     1      50.667 154.007  29.354  0.00  0.00    +0.075 C 
ATOM     32  C   UNL     1      50.886 153.999  27.876  0.00  0.00    +0.072 C 
ATOM     33  H   UNL     1      53.766 155.085  28.102  0.00  0.00    +0.127 HD
ATOM     34  H   UNL     1      51.565 155.866  29.419  0.00  0.00    +0.125 HD
BRANCH  27  35
ATOM     35  N   UNL     1      52.614 152.706  26.757  0.00  0.00    -0.228 N 
ATOM     36  C   UNL     1      53.804 152.305  26.268  0.00  0.00    +0.164 A 
ATOM     37  N   UNL     1      55.011 152.923  26.251  0.00  0.00    -0.197 NA
ATOM     38  C   UNL     1      56.038 152.274  25.686  0.00  0.00    +0.217 A 
ATOM     39  N   UNL     1      55.916 151.035  25.135  0.00  0.00    -0.178 NA
ATOM     40  C   UNL     1      54.723 150.407  25.144  0.00  0.00    +0.245 A 
ATOM     41  C   UNL     1      53.646 151.047  25.718  0.00  0.00    +0.168 A 
ATOM     42  N   UNL     1      52.357 150.697  25.881  0.00  0.00    -0.220 NA
ATOM     43  C   UNL     1      51.722 151.701  26.512  0.00  0.00    +0.171 C 
ATOM     44  N   UNL     1      57.316 152.879  25.644  0.00  0.00    -0.327 N 
ATOM     45  H   UNL     1      57.450 153.774  26.031  0.00  0.00    +0.145 HD
ATOM     46  H   UNL     1      58.072 152.405  25.228  0.00  0.00    +0.145 HD
BRANCH  40  47
ATOM     47  O   UNL     1      54.554 149.123  24.586  0.00  0.00    -0.491 OA
ATOM     48  H   UNL     1      55.283 148.683  24.194  0.00  0.00    +0.294 HD
ENDBRANCH  40  47
ENDBRANCH  27  35
ENDBRANCH   1  27
BRANCH   2  49
ATOM     49  O   UNL     1      52.820 153.264  24.653  0.00  0.00    -0.466 OA
ATOM     50  H   UNL     1      52.755 152.580  25.291  0.00  0.00    +0.297 HD
ENDBRANCH   2  49
TORSDOF 6
