REMARK  Name = =
REMARK  10 active torsions:
REMARK  status: ('A' for Active; 'I' for Inactive)
REMARK    1  A    between atoms: C_4  and  N_39
REMARK    2  A    between atoms: C_4  and  O_41
REMARK    3  A    between atoms: C_9  and  C_36
REMARK    4  A    between atoms: C_17  and  N_26
REMARK    5  A    between atoms: C_18  and  C_19
REMARK    6  A    between atoms: C_21  and  N_25
REMARK    7  A    between atoms: C_27  and  C_29
REMARK    8  A    between atoms: C_33  and  N_35
REMARK    9  A    between atoms: N_39  and  O_40
REMARK   10  A    between atoms: O_41  and  C_42
REMARK                            x       y       z     vdW  Elec       q    Type
REMARK                         _______ _______ _______ _____ _____    ______ ____
ROOT
ATOM      1  C   UNL     1       3.698  -4.330  28.325  0.00  0.00    +0.020 C 
ATOM      2  C   UNL     1       2.869  -4.758  29.458  0.00  0.00    +0.007 C 
ATOM      3  C   UNL     1       1.394  -4.845  29.354  0.00  0.00    +0.057 C 
ATOM      4  C   UNL     1       0.806  -5.985  30.147  0.00  0.00    +0.199 C 
ATOM      5  C   UNL     1       0.154  -7.061  29.377  0.00  0.00    +0.065 C 
ATOM      6  C   UNL     1      -1.137  -7.457  29.958  0.00  0.00    +0.062 C 
ATOM      7  C   UNL     1      -1.803  -8.655  29.374  0.00  0.00    +0.120 C 
ATOM      8  O   UNL     1      -2.267  -9.084  30.616  0.00  0.00    -0.356 OA
ATOM      9  C   UNL     1      -1.219  -8.299  31.175  0.00  0.00    +0.145 C 
ATOM     10  C   UNL     1      -0.835  -9.693  28.852  0.00  0.00    +0.030 C 
ATOM     11  C   UNL     1       0.017  -8.956  27.851  0.00  0.00    +0.010 C 
ATOM     12  C   UNL     1       0.958  -8.075  28.705  0.00  0.00    +0.063 C 
ATOM     13  C   UNL     1       1.968  -7.656  27.739  0.00  0.00    +0.150 C 
ATOM     14  O   UNL     1       3.058  -8.113  27.938  0.00  0.00    -0.296 OA
ATOM     15  C   UNL     1       2.002  -6.747  26.488  0.00  0.00    +0.066 C 
ATOM     16  C   UNL     1       1.896  -5.415  27.135  0.00  0.00    +0.030 C 
ATOM     17  C   UNL     1       3.043  -4.821  27.014  0.00  0.00    +0.073 C 
ATOM     18  C   UNL     1       0.821  -4.804  27.946  0.00  0.00    +0.029 C 
ENDROOT
BRANCH  18  19
ATOM     19  C   UNL     1       0.457  -3.425  27.616  0.00  0.00    -0.021 C 
ATOM     20  C   UNL     1       1.172  -2.340  28.042  0.00  0.00    +0.010 C 
ATOM     21  C   UNL     1       0.818  -1.067  27.708  0.00  0.00    +0.041 C 
ATOM     22  C   UNL     1      -0.300  -0.872  26.915  0.00  0.00    +0.014 C 
ATOM     23  C   UNL     1      -1.062  -1.921  26.453  0.00  0.00    +0.001 C 
ATOM     24  C   UNL     1      -0.659  -3.180  26.819  0.00  0.00    -0.004 C 
BRANCH  21  25
ATOM     25  N   UNL     1       1.582   0.073  28.165  0.00  0.00    -0.357 N 
ATOM     26  H   UNL     1       2.378  -0.062  28.729  0.00  0.00    +0.142 HD
ATOM     27  H   UNL     1       1.306   0.984  27.912  0.00  0.00    +0.142 HD
ENDBRANCH  21  25
ENDBRANCH  18  19
BRANCH  17  28
ATOM     28  N   UNL     1       3.659  -4.535  25.809  0.00  0.00    -0.301 N 
ATOM     29  C   UNL     1       3.251  -3.627  24.831  0.00  0.00    +0.264 C 
ATOM     30  O   UNL     1       2.245  -2.901  24.945  0.00  0.00    -0.268 OA
ATOM     31  H   UNL     1       4.487  -5.033  25.618  0.00  0.00    +0.150 HD
BRANCH  29  32
ATOM     32  C   UNL     1       4.009  -3.465  23.565  0.00  0.00    +0.139 C 
ATOM     33  N   UNL     1       4.544  -4.539  22.981  0.00  0.00    -0.219 NA
ATOM     34  C   UNL     1       5.235  -4.431  21.837  0.00  0.00    +0.200 C 
ATOM     35  N   UNL     1       5.378  -3.208  21.286  0.00  0.00    -0.209 NA
ATOM     36  C   UNL     1       4.858  -2.099  21.836  0.00  0.00    +0.129 C 
ATOM     37  C   UNL     1       4.147  -2.232  23.020  0.00  0.00    +0.058 C 
BRANCH  36  38
ATOM     38  N   UNL     1       5.035  -0.843  21.221  0.00  0.00    -0.343 N 
ATOM     39  H   UNL     1       5.544  -0.774  20.381  0.00  0.00    +0.144 HD
ATOM     40  H   UNL     1       4.650  -0.035  21.632  0.00  0.00    +0.144 HD
ENDBRANCH  36  38
ENDBRANCH  29  32
ENDBRANCH  17  28
BRANCH   9  41
ATOM     41  C   UNL     1      -1.777  -7.681  32.435  0.00  0.00    +0.172 C 
ATOM     42  C   UNL     1      -2.571  -8.547  33.387  0.00  0.00    +0.174 C 
ATOM     43  O   UNL     1      -1.255  -8.255  33.665  0.00  0.00    -0.349 OA
ENDBRANCH   9  41
BRANCH   4  44
ATOM     44  N   UNL     1      -0.285  -5.326  30.910  0.00  0.00    -0.161 NA
ATOM     45  H   UNL     1      -0.018  -5.271  31.893  0.00  0.00    +0.158 HD
BRANCH  44  46
ATOM     46  O   UNL     1      -0.521  -4.076  30.446  0.00  0.00    -0.312 OA
ATOM     47  H   UNL     1      -0.776  -4.121  29.511  0.00  0.00    +0.236 HD
ENDBRANCH  44  46
ENDBRANCH   4  44
BRANCH   4  48
ATOM     48  O   UNL     1       1.711  -6.415  31.114  0.00  0.00    -0.464 OA
BRANCH  48  49
ATOM     49  C   UNL     1       1.906  -6.000  32.395  0.00  0.00    +0.174 C 
ATOM     50  C   UNL     1       1.556  -6.617  33.502  0.00  0.00    +0.043 C 
ENDBRANCH  48  49
ENDBRANCH   4  48
TORSDOF 10
