REMARK  Name = =
REMARK  2 active torsions:
REMARK  status: ('A' for Active; 'I' for Inactive)
REMARK    1  A    between atoms: O_1  and  C_2
REMARK    2  A    between atoms: O_1  and  C_9
REMARK                            x       y       z     vdW  Elec       q    Type
REMARK                         _______ _______ _______ _____ _____    ______ ____
ROOT
ATOM      1  O   UNL     1      52.130 155.126  27.486  0.00  0.00    -0.410 OA
ENDROOT
BRANCH   1   2
ATOM      2  C   UNL     1      52.877 154.945  26.331  0.00  0.00    +0.150 C 
ATOM      3  C   UNL     1      52.921 153.727  25.706  0.00  0.00    +0.038 C 
ATOM      4  C   UNL     1      53.675 153.597  24.565  0.00  0.00    +0.003 C 
ATOM      5  C   UNL     1      54.381 154.665  24.046  0.00  0.00    +0.000 C 
ATOM      6  C   UNL     1      54.322 155.886  24.695  0.00  0.00    +0.003 C 
ATOM      7  C   UNL     1      53.576 156.024  25.829  0.00  0.00    +0.038 C 
ENDBRANCH   1   2
BRANCH   1   9
ATOM      8  N   UNL     1      51.691 154.787  29.877  0.00  0.00    -0.295 N 
ATOM      9  C   UNL     1      52.275 154.410  28.638  0.00  0.00    +0.403 C 
ATOM     10  O   UNL     1      52.972 153.351  28.584  0.00  0.00    -0.226 OA
ATOM     11  H   UNL     1      51.147 155.606  29.936  0.00  0.00    +0.148 HD
ATOM     12  H   UNL     1      51.830 154.230  30.677  0.00  0.00    +0.148 HD
ENDBRANCH   1   9
TORSDOF 2
