REMARK  Name = =
REMARK  5 active torsions:
REMARK  status: ('A' for Active; 'I' for Inactive)
REMARK    1  A    between atoms: N_1  and  C_4
REMARK    2  A    between atoms: C_2  and  O_13
REMARK    3  A    between atoms: C_7  and  C_10
REMARK    4  A    between atoms: C_10  and  O_12
REMARK    5  A    between atoms: O_13  and  C_14
REMARK                            x       y       z     vdW  Elec       q    Type
REMARK                         _______ _______ _______ _____ _____    ______ ____
ROOT
ATOM      1  N   UNL     1      53.057 153.785  25.625  0.00  0.00    -0.250 N 
ATOM      2  C   UNL     1      54.076 153.931  24.663  0.00  0.00    +0.410 C 
ATOM      3  O   UNL     1      54.824 154.931  24.705  0.00  0.00    -0.226 OA
ATOM      4  H   UNL     1      52.495 152.981  25.548  0.00  0.00    +0.158 HD
ENDROOT
BRANCH   1   5
ATOM      5  C   UNL     1      52.753 154.664  26.687  0.00  0.00    +0.053 C 
ATOM      6  C   UNL     1      51.784 154.261  27.619  0.00  0.00    +0.015 C 
ATOM      7  C   UNL     1      51.418 155.045  28.687  0.00  0.00    +0.008 C 
ATOM      8  C   UNL     1      52.013 156.278  28.869  0.00  0.00    +0.076 C 
ATOM      9  C   UNL     1      52.965 156.710  27.982  0.00  0.00    +0.008 C 
ATOM     10  C   UNL     1      53.308 155.888  26.912  0.00  0.00    +0.015 C 
BRANCH   8  11
ATOM     11  C   UNL     1      51.641 157.140  30.004  0.00  0.00    +0.338 C 
ATOM     12  O   UNL     1      50.589 156.953  30.658  0.00  0.00    -0.245 OA
BRANCH  11  13
ATOM     13  O   UNL     1      52.465 158.182  30.366  0.00  0.00    -0.477 OA
ATOM     14  H   UNL     1      53.257 158.340  29.891  0.00  0.00    +0.295 HD
ENDBRANCH  11  13
ENDBRANCH   8  11
ENDBRANCH   1   5
BRANCH   2  15
ATOM     15  O   UNL     1      54.268 152.967  23.649  0.00  0.00    -0.410 OA
BRANCH  15  16
ATOM     16  C   UNL     1      54.913 153.391  22.483  0.00  0.00    +0.150 C 
ATOM     17  C   UNL     1      56.183 153.928  22.555  0.00  0.00    +0.038 C 
ATOM     18  C   UNL     1      56.814 154.343  21.414  0.00  0.00    +0.003 C 
ATOM     19  C   UNL     1      56.236 154.252  20.162  0.00  0.00    +0.000 C 
ATOM     20  C   UNL     1      54.962 153.714  20.093  0.00  0.00    +0.003 C 
ATOM     21  C   UNL     1      54.322 153.294  21.242  0.00  0.00    +0.038 C 
ENDBRANCH  15  16
ENDBRANCH   2  15
TORSDOF 5
