MODEL 1
REMARK VINA RESULT:    -7.043      0.000      0.000
REMARK INTER + INTRA:         -10.710
REMARK INTER:                  -8.690
REMARK INTRA:                  -2.021
REMARK UNBOUND:                -2.021
REMARK  Name = =
REMARK  4 active torsions:
REMARK  status: ('A' for Active; 'I' for Inactive)
REMARK    1  A    between atoms: C_1  and  N_35
REMARK    2  A    between atoms: C_2  and  C_13
REMARK    3  A    between atoms: C_16  and  N_27
REMARK    4  A    between atoms: C_34  and  N_39
REMARK                            x       y       z     vdW  Elec       q    Type
REMARK                         _______ _______ _______ _____ _____    ______ ____
ROOT
ATOM      1  C   UNL     1      61.941 165.926  38.831  0.00  0.00    +0.060 C 
ATOM      2  C   UNL     1      61.192 164.946  38.225  0.00  0.00    +0.015 C 
ATOM      3  C   UNL     1      60.789 165.081  36.914  0.00  0.00    +0.022 C 
ATOM      4  C   UNL     1      61.143 166.207  36.220  0.00  0.00    +0.135 C 
ATOM      5  C   UNL     1      61.892 167.205  36.796  0.00  0.00    +0.066 C 
ATOM      6  C   UNL     1      62.286 167.059  38.096  0.00  0.00    +0.031 C 
ATOM      7  N   UNL     1      62.239 168.364  36.025  0.00  0.00    -0.317 N 
ATOM      8  C   UNL     1      61.314 168.863  35.041  0.00  0.00    +0.182 C 
ATOM      9  N   UNL     1      60.956 167.941  34.014  0.00  0.00    -0.160 NA
ATOM     10  S   UNL     1      60.625 166.358  34.540  0.00  0.00    +0.063 S 
ATOM     11  O   UNL     1      59.174 166.056  34.443  0.00  0.00    -0.153 OA
ATOM     12  O   UNL     1      61.459 165.363  33.768  0.00  0.00    -0.153 OA
ATOM     13  H   UNL     1      63.103 168.814  36.168  0.00  0.00    +0.148 HD
ATOM     14  H   UNL     1      61.728 167.897  33.347  0.00  0.00    +0.151 HD
ENDROOT
BRANCH   2  15
ATOM     15  C   UNL     1      60.833 163.699  38.930  0.00  0.00    +0.001 C 
ATOM     16  C   UNL     1      61.648 162.610  38.764  0.00  0.00    +0.001 C 
ATOM     17  C   UNL     1      61.310 161.423  39.331  0.00  0.00    +0.015 C 
ATOM     18  C   UNL     1      60.158 161.235  40.089  0.00  0.00    +0.061 C 
ATOM     19  C   UNL     1      59.360 162.347  40.239  0.00  0.00    +0.014 C 
ATOM     20  C   UNL     1      59.666 163.588  39.676  0.00  0.00    +0.001 C 
ATOM     21  C   UNL     1      58.880 164.681  39.841  0.00  0.00    +0.000 C 
ATOM     22  C   UNL     1      57.719 164.549  40.605  0.00  0.00    +0.000 C 
ATOM     23  C   UNL     1      57.379 163.342  41.177  0.00  0.00    +0.000 C 
ATOM     24  C   UNL     1      58.208 162.229  40.992  0.00  0.00    +0.001 C 
ATOM     25  C   UNL     1      56.224 163.254  41.924  0.00  0.00    +0.000 C 
ATOM     26  C   UNL     1      55.414 164.338  42.107  0.00  0.00    +0.000 C 
ATOM     27  C   UNL     1      55.760 165.556  41.528  0.00  0.00    +0.000 C 
ATOM     28  C   UNL     1      56.908 165.673  40.778  0.00  0.00    +0.000 C 
BRANCH  18  29
ATOM     29  N   UNL     1      59.826 159.978  40.649  0.00  0.00    -0.208 N 
ATOM     30  C   UNL     1      59.272 158.812  40.073  0.00  0.00    +0.236 C 
ATOM     31  O   UNL     1      59.264 158.582  38.837  0.00  0.00    -0.274 OA
ATOM     32  C   UNL     1      58.713 157.919  41.105  0.00  0.00    +0.096 C 
ATOM     33  C   UNL     1      59.287 158.430  42.380  0.00  0.00    +0.096 C 
ATOM     34  C   UNL     1      60.023 159.672  42.036  0.00  0.00    +0.236 C 
ATOM     35  O   UNL     1      60.708 160.318  42.879  0.00  0.00    -0.274 OA
ENDBRANCH  18  29
ENDBRANCH   2  15
BRANCH   1  37
ATOM     36  C   UNL     1      63.499 165.287  40.636  0.00  0.00    +0.222 C 
ATOM     37  N   UNL     1      62.362 165.817  40.182  0.00  0.00    -0.229 N 
ATOM     38  C   UNL     1      61.660 166.250  41.234  0.00  0.00    +0.173 C 
ATOM     39  N   UNL     1      62.361 165.990  42.356  0.00  0.00    -0.223 NA
ATOM     40  C   UNL     1      63.506 165.392  41.995  0.00  0.00    +0.140 C 
BRANCH  36  41
ATOM     41  N   UNL     1      64.510 164.720  39.834  0.00  0.00    +0.074 N 
ATOM     42  O   UNL     1      65.334 165.534  39.091  0.00  0.00    -0.125 OA
ATOM     43  O   UNL     1      64.680 163.473  39.780  0.00  0.00    -0.125 OA
ENDBRANCH  36  41
ENDBRANCH   1  37
TORSDOF 4
ENDMDL
