REMARK  Name = =
REMARK  2 active torsions:
REMARK  status: ('A' for Active; 'I' for Inactive)
REMARK    1  A    between atoms: C_1  and  N_7
REMARK    2  A    between atoms: C_4  and  O_8
REMARK                            x       y       z     vdW  Elec       q    Type
REMARK                         _______ _______ _______ _____ _____    ______ ____
ROOT
ATOM      1  C   UNL     1      51.074 156.310  29.205  0.00  0.00    +0.042 C 
ATOM      2  C   UNL     1      52.054 157.078  28.609  0.00  0.00    +0.017 C 
ATOM      3  C   UNL     1      52.864 156.552  27.625  0.00  0.00    +0.038 C 
ATOM      4  C   UNL     1      52.749 155.251  27.185  0.00  0.00    +0.134 C 
ATOM      5  C   UNL     1      51.766 154.484  27.786  0.00  0.00    +0.038 C 
ATOM      6  C   UNL     1      50.950 155.002  28.772  0.00  0.00    +0.017 C 
ENDROOT
BRANCH   1   7
ATOM      7  N   UNL     1      50.224 156.831  30.225  0.00  0.00    -0.357 N 
ATOM      8  H   UNL     1      50.326 157.764  30.521  0.00  0.00    +0.142 HD
ATOM      9  H   UNL     1      49.536 156.257  30.633  0.00  0.00    +0.142 HD
ENDBRANCH   1   7
BRANCH   4  10
ATOM     10  O   UNL     1      53.573 154.736  26.192  0.00  0.00    -0.506 OA
ATOM     11  H   UNL     1      54.231 155.277  25.802  0.00  0.00    +0.292 HD
ENDBRANCH   4  10
TORSDOF 2
