REMARK  Name = =
REMARK  1 active torsions:
REMARK  status: ('A' for Active; 'I' for Inactive)
REMARK    1  A    between atoms: C_1  and  N_7
REMARK                            x       y       z     vdW  Elec       q    Type
REMARK                         _______ _______ _______ _____ _____    ______ ____
ROOT
ATOM      1  C   UNL     1      58.459 160.141  42.080  0.00  0.00    +0.042 C 
ATOM      2  C   UNL     1      58.458 161.467  41.680  0.00  0.00    +0.014 C 
ATOM      3  C   UNL     1      59.358 161.951  40.753  0.00  0.00    +0.001 C 
ATOM      4  C   UNL     1      60.298 161.131  40.186  0.00  0.00    +0.000 C 
ATOM      5  C   UNL     1      60.318 159.808  40.568  0.00  0.00    +0.001 C 
ATOM      6  C   UNL     1      59.413 159.336  41.496  0.00  0.00    +0.014 C 
ENDROOT
BRANCH   1   7
ATOM      7  N   UNL     1      57.537 159.631  43.032  0.00  0.00    -0.357 N 
ATOM      8  H   UNL     1      56.865 160.227  43.435  0.00  0.00    +0.142 HD
ATOM      9  H   UNL     1      57.570 158.681  43.289  0.00  0.00    +0.142 HD
ENDBRANCH   1   7
TORSDOF 1
