REMARK  Name = =
REMARK  4 active torsions:
REMARK  status: ('A' for Active; 'I' for Inactive)
REMARK    1  A    between atoms: N_1  and  C_2
REMARK    2  A    between atoms: N_1  and  C_9
REMARK    3  A    between atoms: C_5  and  O_8
REMARK    4  A    between atoms: C_12  and  O_15
REMARK                            x       y       z     vdW  Elec       q    Type
REMARK                         _______ _______ _______ _____ _____    ______ ____
ROOT
ATOM      1  N   UNL     1      51.833 158.683  29.607  0.00  0.00    -0.313 N 
ATOM      2  H   UNL     1      52.610 159.254  29.408  0.00  0.00    +0.152 HD
ENDROOT
BRANCH   1   3
ATOM      3  C   UNL     1      50.802 159.268  30.355  0.00  0.00    +0.049 C 
ATOM      4  C   UNL     1      51.137 160.323  31.208  0.00  0.00    +0.018 C 
ATOM      5  C   UNL     1      50.210 160.951  32.008  0.00  0.00    +0.038 C 
ATOM      6  C   UNL     1      48.891 160.559  32.000  0.00  0.00    +0.134 C 
ATOM      7  C   UNL     1      48.541 159.522  31.167  0.00  0.00    +0.038 C 
ATOM      8  C   UNL     1      49.484 158.881  30.353  0.00  0.00    +0.018 C 
BRANCH   6   9
ATOM      9  O   UNL     1      47.952 161.202  32.816  0.00  0.00    -0.506 OA
ATOM     10  H   UNL     1      48.220 161.906  33.374  0.00  0.00    +0.292 HD
ENDBRANCH   6   9
ENDBRANCH   1   3
BRANCH   1  11
ATOM     11  C   UNL     1      51.878 157.358  29.107  0.00  0.00    +0.049 C 
ATOM     12  C   UNL     1      52.469 157.070  27.885  0.00  0.00    +0.018 C 
ATOM     13  C   UNL     1      52.529 155.823  27.318  0.00  0.00    +0.038 C 
ATOM     14  C   UNL     1      51.947 154.785  28.039  0.00  0.00    +0.134 C 
ATOM     15  C   UNL     1      51.350 155.010  29.249  0.00  0.00    +0.038 C 
ATOM     16  C   UNL     1      51.315 156.303  29.785  0.00  0.00    +0.018 C 
BRANCH  14  17
ATOM     17  O   UNL     1      51.975 153.499  27.520  0.00  0.00    -0.506 OA
ATOM     18  H   UNL     1      52.382 153.337  26.692  0.00  0.00    +0.292 HD
ENDBRANCH  14  17
ENDBRANCH   1  11
TORSDOF 4
