REMARK  Name = =
REMARK  2 active torsions:
REMARK  status: ('A' for Active; 'I' for Inactive)
REMARK    1  A    between atoms: C_1  and  C_16
REMARK    2  A    between atoms: C_15  and  N_21
REMARK                            x       y       z     vdW  Elec       q    Type
REMARK                         _______ _______ _______ _____ _____    ______ ____
ROOT
ATOM      1  C   UNL     1      58.843 163.061  40.818  0.00  0.00    +0.002 C 
ATOM      2  C   UNL     1      57.624 163.691  40.851  0.00  0.00    +0.015 C 
ATOM      3  C   UNL     1      57.465 165.077  40.758  0.00  0.00    +0.054 C 
ATOM      4  C   UNL     1      58.623 165.800  40.626  0.00  0.00    +0.043 C 
ATOM      5  C   UNL     1      59.863 165.227  40.586  0.00  0.00    +0.008 C 
ATOM      6  C   UNL     1      59.959 163.859  40.682  0.00  0.00    +0.001 C 
ATOM      7  S   UNL     1      58.543 167.566  40.498  0.00  0.00    -0.084 S 
ATOM      8  C   UNL     1      56.816 168.025  40.579  0.00  0.00    +0.043 C 
ATOM      9  C   UNL     1      55.894 167.008  40.718  0.00  0.00    +0.054 C 
ATOM     10  C   UNL     1      54.566 167.421  40.776  0.00  0.00    +0.015 C 
ATOM     11  C   UNL     1      54.201 168.749  40.700  0.00  0.00    +0.001 C 
ATOM     12  C   UNL     1      55.153 169.737  40.562  0.00  0.00    +0.001 C 
ATOM     13  C   UNL     1      56.464 169.334  40.504  0.00  0.00    +0.008 C 
ATOM     14  N   UNL     1      56.180 165.645  40.801  0.00  0.00    -0.312 N 
ATOM     15  H   UNL     1      55.418 165.029  40.898  0.00  0.00    +0.152 HD
ENDROOT
BRANCH   1  17
ATOM     16  C   UNL     1      58.404 160.982  42.006  0.00  0.00    +0.041 C 
ATOM     17  C   UNL     1      58.969 161.615  40.918  0.00  0.00    +0.013 C 
ATOM     18  C   UNL     1      59.619 160.834  39.994  0.00  0.00    +0.001 C 
ATOM     19  C   UNL     1      59.722 159.458  40.120  0.00  0.00    +0.000 C 
ATOM     20  C   UNL     1      59.158 158.846  41.201  0.00  0.00    +0.001 C 
ATOM     21  C   UNL     1      58.496 159.602  42.151  0.00  0.00    +0.014 C 
BRANCH  16  22
ATOM     22  N   UNL     1      57.705 161.678  43.031  0.00  0.00    -0.357 N 
ATOM     23  H   UNL     1      57.319 161.181  43.788  0.00  0.00    +0.142 HD
ATOM     24  H   UNL     1      57.607 162.656  42.983  0.00  0.00    +0.142 HD
ENDBRANCH  16  22
ENDBRANCH   1  17
TORSDOF 2
