REMARK  Name = =
REMARK  4 active torsions:
REMARK  status: ('A' for Active; 'I' for Inactive)
REMARK    1  A    between atoms: C_1  and  C_8
REMARK    2  A    between atoms: C_1  and  C_13
REMARK    3  A    between atoms: C_13  and  O_15
REMARK    4  A    between atoms: O_15  and  N_16
REMARK                            x       y       z     vdW  Elec       q    Type
REMARK                         _______ _______ _______ _____ _____    ______ ____
ROOT
ATOM      1  C   UNL     1      52.406 154.447  27.213  0.00  0.00    +0.152 C 
ATOM      2  C   UNL     1      53.561 153.538  27.441  0.00  0.00    +0.161 C 
ATOM      3  O   UNL     1      54.393 153.874  28.288  0.00  0.00    -0.296 OA
ATOM      4  C   UNL     1      53.722 152.290  26.702  0.00  0.00    +0.065 C 
ATOM      5  C   UNL     1      52.449 151.538  26.465  0.00  0.00    +0.008 C 
ATOM      6  C   UNL     1      51.233 152.399  26.373  0.00  0.00    +0.001 C 
ATOM      7  C   UNL     1      51.522 153.852  26.143  0.00  0.00    +0.018 C 
ENDROOT
BRANCH   1   8
ATOM      8  C   UNL     1      51.690 154.617  28.516  0.00  0.00    +0.113 C 
ATOM      9  C   UNL     1      50.274 155.137  28.419  0.00  0.00    +0.099 C 
ATOM     10  N   UNL     1      50.666 156.159  29.376  0.00  0.00    -0.304 N 
ATOM     11  C   UNL     1      52.047 155.888  29.193  0.00  0.00    +0.225 C 
ATOM     12  O   UNL     1      53.082 156.524  29.508  0.00  0.00    -0.275 OA
ATOM     13  H   UNL     1      50.165 156.795  29.936  0.00  0.00    +0.149 HD
ENDBRANCH   1   8
BRANCH   1  14
ATOM     14  C   UNL     1      52.947 155.720  26.683  0.00  0.00    +0.341 C 
ATOM     15  O   UNL     1      52.572 156.807  27.145  0.00  0.00    -0.248 OA
BRANCH  14  16
ATOM     16  O   UNL     1      53.875 155.682  25.666  0.00  0.00    -0.371 OA
BRANCH  16  17
ATOM     17  N   UNL     1      54.346 156.798  25.021  0.00  0.00    -0.165 NA
ATOM     18  H   UNL     1      55.021 156.520  24.309  0.00  0.00    +0.163 HD
ATOM     19  H   UNL     1      54.798 157.415  25.696  0.00  0.00    +0.163 HD
ENDBRANCH  16  17
ENDBRANCH  14  16
ENDBRANCH   1  14
TORSDOF 4
