REMARK  Name = =
REMARK  4 active torsions:
REMARK  status: ('A' for Active; 'I' for Inactive)
REMARK    1  A    between atoms: N_1  and  C_2
REMARK    2  A    between atoms: N_1  and  C_9
REMARK    3  A    between atoms: N_1  and  C_19
REMARK    4  A    between atoms: C_5  and  O_8
REMARK                            x       y       z     vdW  Elec       q    Type
REMARK                         _______ _______ _______ _____ _____    ______ ____
ROOT
ATOM      1  N   UNL     1      50.751 158.836  29.981  0.00  0.00    -0.251 N 
ENDROOT
BRANCH   1   2
ATOM      2  C   UNL     1      51.417 157.786  29.321  0.00  0.00    +0.055 C 
ATOM      3  C   UNL     1      51.690 156.607  29.962  0.00  0.00    +0.018 C 
ATOM      4  C   UNL     1      52.349 155.557  29.332  0.00  0.00    +0.043 C 
ATOM      5  C   UNL     1      52.760 155.656  28.030  0.00  0.00    +0.196 C 
ATOM      6  C   UNL     1      52.488 156.846  27.373  0.00  0.00    +0.043 C 
ATOM      7  C   UNL     1      51.832 157.880  28.007  0.00  0.00    +0.018 C 
ATOM      8  O   UNL     1      53.430 154.642  27.342  0.00  0.00    -0.287 OA
ENDBRANCH   1   2
BRANCH   1   9
ATOM      9  C   UNL     1      51.338 160.070  30.385  0.00  0.00    +0.055 C 
ATOM     10  C   UNL     1      51.346 161.193  29.592  0.00  0.00    +0.018 C 
ATOM     11  C   UNL     1      51.934 162.383  30.024  0.00  0.00    +0.038 C 
ATOM     12  C   UNL     1      52.531 162.484  31.261  0.00  0.00    +0.134 C 
ATOM     13  C   UNL     1      52.522 161.351  32.061  0.00  0.00    +0.038 C 
ATOM     14  C   UNL     1      51.934 160.168  31.622  0.00  0.00    +0.018 C 
BRANCH  12  15
ATOM     15  O   UNL     1      53.134 163.656  31.734  0.00  0.00    -0.506 OA
ATOM     16  H   UNL     1      53.145 164.426  31.200  0.00  0.00    +0.292 HD
ENDBRANCH  12  15
ENDBRANCH   1   9
BRANCH   1  17
ATOM     17  C   UNL     1      49.320 158.624  30.266  0.00  0.00    +0.275 C 
ATOM     18  O   UNL     1      48.597 159.752  29.825  0.00  0.00    -0.425 OA
ATOM     19  C   UNL     1      47.981 160.381  30.879  0.00  0.00    +0.343 C 
ATOM     20  O   UNL     1      47.246 161.431  30.847  0.00  0.00    -0.245 OA
ATOM     21  C   UNL     1      48.331 159.610  32.060  0.00  0.00    +0.083 C 
ATOM     22  C   UNL     1      49.100 158.598  31.722  0.00  0.00    +0.046 C 
ENDBRANCH   1  17
TORSDOF 4
REMARK  Name = =
REMARK  4 active torsions:
REMARK  status: ('A' for Active; 'I' for Inactive)
REMARK    1  A    between atoms: N_1  and  C_2
REMARK    2  A    between atoms: N_1  and  C_9
REMARK    3  A    between atoms: N_1  and  C_19
REMARK    4  A    between atoms: C_5  and  O_8
REMARK                            x       y       z     vdW  Elec       q    Type
REMARK                         _______ _______ _______ _____ _____    ______ ____
ROOT
ATOM      1  I   UNL     1      53.240 152.715  27.931  0.00  0.00    -0.107 I 
ATOM      2  H   UNL     1      54.801 152.715  27.931  0.00  0.00    +0.107 HD
ENDROOT
TORSDOF 0
REMARK  Name = =
REMARK  4 active torsions:
REMARK  status: ('A' for Active; 'I' for Inactive)
REMARK    1  A    between atoms: N_1  and  C_2
REMARK    2  A    between atoms: N_1  and  C_9
REMARK    3  A    between atoms: N_1  and  C_19
REMARK    4  A    between atoms: C_5  and  O_8
REMARK                            x       y       z     vdW  Elec       q    Type
REMARK                         _______ _______ _______ _____ _____    ______ ____
ROOT
ATOM      1  C   UNL     1      52.289 151.651  26.403  0.00  0.00    +0.000 C 
ATOM      2  C   UNL     1      52.559 150.382  26.180  0.00  0.00    +0.000 C 
ENDROOT
TORSDOF 0
