REMARK  Name = =
REMARK  8 active torsions:
REMARK  status: ('A' for Active; 'I' for Inactive)
REMARK    1  A    between atoms: N_1  and  C_2
REMARK    2  A    between atoms: N_1  and  C_9
REMARK    3  A    between atoms: N_1  and  C_19
REMARK    4  A    between atoms: C_5  and  O_8
REMARK    5  A    between atoms: C_19  and  O_25
REMARK    6  A    between atoms: O_25  and  P_26
REMARK    7  A    between atoms: P_26  and  N_28
REMARK    8  A    between atoms: P_26  and  N_29
REMARK                            x       y       z     vdW  Elec       q    Type
REMARK                         _______ _______ _______ _____ _____    ______ ____
ROOT
ATOM      1  N   UNL     1      51.409 159.438  30.415  0.00  0.00    -0.232 N 
ENDROOT
BRANCH   1   2
ATOM      2  C   UNL     1      51.682 158.174  29.843  0.00  0.00    +0.057 C 
ATOM      3  C   UNL     1      52.620 158.009  28.834  0.00  0.00    +0.018 C 
ATOM      4  C   UNL     1      52.879 156.771  28.285  0.00  0.00    +0.043 C 
ATOM      5  C   UNL     1      52.202 155.660  28.733  0.00  0.00    +0.196 C 
ATOM      6  C   UNL     1      51.267 155.800  29.734  0.00  0.00    +0.043 C 
ATOM      7  C   UNL     1      51.026 157.043  30.267  0.00  0.00    +0.018 C 
ATOM      8  O   UNL     1      52.486 154.416  28.155  0.00  0.00    -0.287 OA
ENDBRANCH   1   2
BRANCH   1   9
ATOM      9  C   UNL     1      52.453 160.337  30.682  0.00  0.00    +0.057 C 
ATOM     10  C   UNL     1      53.740 160.050  30.279  0.00  0.00    +0.018 C 
ATOM     11  C   UNL     1      54.801 160.909  30.522  0.00  0.00    +0.038 C 
ATOM     12  C   UNL     1      54.599 162.099  31.188  0.00  0.00    +0.134 C 
ATOM     13  C   UNL     1      53.316 162.390  31.593  0.00  0.00    +0.038 C 
ATOM     14  C   UNL     1      52.279 161.537  31.349  0.00  0.00    +0.018 C 
BRANCH  12  15
ATOM     15  O   UNL     1      55.646 162.985  31.448  0.00  0.00    -0.506 OA
ATOM     16  H   UNL     1      56.516 162.777  31.168  0.00  0.00    +0.292 HD
ENDBRANCH  12  15
ENDBRANCH   1   9
BRANCH   1  17
ATOM     17  C   UNL     1      50.011 159.715  30.692  0.00  0.00    +0.334 C 
ATOM     18  O   UNL     1      49.694 160.903  30.004  0.00  0.00    -0.407 OA
ATOM     19  C   UNL     1      48.759 160.613  29.046  0.00  0.00    +0.344 C 
ATOM     20  O   UNL     1      48.212 161.404  28.205  0.00  0.00    -0.245 OA
ATOM     21  C   UNL     1      48.435 159.203  29.097  0.00  0.00    +0.085 C 
ATOM     22  C   UNL     1      49.163 158.674  30.059  0.00  0.00    +0.072 C 
BRANCH  17  23
ATOM     23  O   UNL     1      49.732 159.716  32.031  0.00  0.00    -0.241 OA
BRANCH  23  24
ATOM     24  P   UNL     1      48.783 160.935  32.614  0.00  0.00    +0.342 P 
ATOM     25  O   UNL     1      47.336 160.430  32.724  0.00  0.00    -0.255 OA
BRANCH  24  26
ATOM     26  N   UNL     1      49.235 161.414  34.255  0.00  0.00    -0.247 NA
ATOM     27  H   UNL     1      49.279 160.587  34.851  0.00  0.00    +0.129 HD
ATOM     28  H   UNL     1      48.539 162.062  34.624  0.00  0.00    +0.129 HD
ENDBRANCH  24  26
BRANCH  24  29
ATOM     29  N   UNL     1      48.729 162.379  31.672  0.00  0.00    -0.247 NA
ATOM     30  H   UNL     1      48.471 162.149  30.712  0.00  0.00    +0.129 HD
ATOM     31  H   UNL     1      49.646 162.825  31.680  0.00  0.00    +0.129 HD
ENDBRANCH  24  29
ENDBRANCH  23  24
ENDBRANCH  17  23
ENDBRANCH   1  17
TORSDOF 8
REMARK  Name = =
REMARK  8 active torsions:
REMARK  status: ('A' for Active; 'I' for Inactive)
REMARK    1  A    between atoms: N_1  and  C_2
REMARK    2  A    between atoms: N_1  and  C_9
REMARK    3  A    between atoms: N_1  and  C_19
REMARK    4  A    between atoms: C_5  and  O_8
REMARK    5  A    between atoms: C_19  and  O_25
REMARK    6  A    between atoms: O_25  and  P_26
REMARK    7  A    between atoms: P_26  and  N_28
REMARK    8  A    between atoms: P_26  and  N_29
REMARK                            x       y       z     vdW  Elec       q    Type
REMARK                         _______ _______ _______ _____ _____    ______ ____
ROOT
ATOM      1  I   UNL     1      52.441 154.230  26.116  0.00  0.00    -0.107 I 
ATOM      2  H   UNL     1      54.002 154.230  26.116  0.00  0.00    +0.107 HD
ENDROOT
TORSDOF 0
REMARK  Name = =
REMARK  8 active torsions:
REMARK  status: ('A' for Active; 'I' for Inactive)
REMARK    1  A    between atoms: N_1  and  C_2
REMARK    2  A    between atoms: N_1  and  C_9
REMARK    3  A    between atoms: N_1  and  C_19
REMARK    4  A    between atoms: C_5  and  O_8
REMARK    5  A    between atoms: C_19  and  O_25
REMARK    6  A    between atoms: O_25  and  P_26
REMARK    7  A    between atoms: P_26  and  N_28
REMARK    8  A    between atoms: P_26  and  N_29
REMARK                            x       y       z     vdW  Elec       q    Type
REMARK                         _______ _______ _______ _____ _____    ______ ____
ROOT
ATOM      1  C   UNL     1      52.431 152.152  25.804  0.00  0.00    +0.000 C 
ATOM      2  C   UNL     1      53.553 151.515  25.598  0.00  0.00    +0.000 C 
ENDROOT
TORSDOF 0
