REMARK  Name = =
REMARK  12 active torsions:
REMARK  status: ('A' for Active; 'I' for Inactive)
REMARK    1  A    between atoms: N_1  and  N_24
REMARK    2  A    between atoms: C_2  and  C_18
REMARK    3  A    between atoms: C_2  and  N_36
REMARK    4  A    between atoms: C_5  and  C_8
REMARK    5  A    between atoms: C_14  and  N_15
REMARK    6  A    between atoms: N_15  and  N_16
REMARK    7  A    between atoms: N_20  and  N_21
REMARK    8  A    between atoms: N_24  and  C_25
REMARK    9  A    between atoms: C_33  and  O_35
REMARK   10  A    between atoms: N_36  and  P_37
REMARK   11  A    between atoms: P_37  and  N_39
REMARK   12  A    between atoms: P_37  and  O_40
REMARK                            x       y       z     vdW  Elec       q    Type
REMARK                         _______ _______ _______ _____ _____    ______ ____
ROOT
ATOM      1  N   UNL     1       1.790 -12.426  22.521  0.00  0.00    -0.191 N 
ATOM      2  C   UNL     1       3.111 -12.592  23.194  0.00  0.00    +0.199 C 
ATOM      3  C   UNL     1       3.670 -11.300  23.629  0.00  0.00    +0.045 C 
ATOM      4  C   UNL     1       3.362 -10.083  22.842  0.00  0.00    +0.013 C 
ATOM      5  C   UNL     1       1.889  -9.871  22.529  0.00  0.00    +0.078 C 
ATOM      6  C   UNL     1       1.178 -11.154  22.476  0.00  0.00    +0.242 C 
ATOM      7  O   UNL     1      -0.063 -11.095  22.388  0.00  0.00    -0.273 OA
ENDROOT
BRANCH   5   8
ATOM      8  C   UNL     1       1.836  -8.994  21.345  0.00  0.00    +0.009 C 
ATOM      9  C   UNL     1       0.580  -8.347  20.958  0.00  0.00    +0.002 C 
ATOM     10  C   UNL     1       0.770  -6.825  21.089  0.00  0.00    +0.020 C 
ATOM     11  C   UNL     1       1.750  -6.850  22.275  0.00  0.00    +0.002 C 
ATOM     12  C   UNL     1       2.781  -7.813  21.659  0.00  0.00    +0.002 C 
ATOM     13  C   UNL     1       3.031  -7.121  20.336  0.00  0.00    +0.021 C 
ATOM     14  C   UNL     1       1.729  -6.443  19.972  0.00  0.00    +0.090 C 
BRANCH  14  15
ATOM     15  N   UNL     1       1.884  -5.009  19.864  0.00  0.00    -0.224 N 
ATOM     16  H   UNL     1       1.071  -4.476  19.709  0.00  0.00    +0.172 HD
BRANCH  15  17
ATOM     17  N   UNL     1       3.077  -4.332  19.961  0.00  0.00    +0.042 NA
ATOM     18  O   UNL     1       3.630  -3.625  19.132  0.00  0.00    -0.126 OA
ENDBRANCH  15  17
ENDBRANCH  14  15
ENDBRANCH   5   8
BRANCH   2  19
ATOM     19  C   UNL     1       3.931 -13.409  22.300  0.00  0.00    +0.270 C 
ATOM     20  O   UNL     1       4.106 -14.641  22.617  0.00  0.00    -0.270 OA
ATOM     21  N   UNL     1       4.567 -12.986  21.114  0.00  0.00    -0.231 N 
ATOM     22  H   UNL     1       4.463 -12.053  20.817  0.00  0.00    +0.173 HD
BRANCH  21  23
ATOM     23  N   UNL     1       5.339 -13.863  20.355  0.00  0.00    -0.226 N 
ATOM     24  C   UNL     1       6.379 -13.334  19.502  0.00  0.00    +0.316 C 
ATOM     25  O   UNL     1       6.581 -12.083  19.442  0.00  0.00    -0.264 OA
ATOM     26  H   UNL     1       5.178 -14.833  20.399  0.00  0.00    +0.173 HD
ENDBRANCH  21  23
ENDBRANCH   2  19
BRANCH   1  27
ATOM     27  N   UNL     1       1.219 -13.554  21.959  0.00  0.00    -0.257 N 
ATOM     28  H   UNL     1       1.752 -13.990  21.255  0.00  0.00    +0.170 HD
BRANCH  27  29
ATOM     29  C   UNL     1      -0.018 -14.170  22.250  0.00  0.00    +0.082 C 
ATOM     30  C   UNL     1      -1.013 -14.267  21.281  0.00  0.00    +0.096 C 
ATOM     31  N   UNL     1      -0.866 -13.836  20.018  0.00  0.00    -0.243 NA
ATOM     32  C   UNL     1      -1.798 -13.936  19.062  0.00  0.00    +0.099 C 
ATOM     33  C   UNL     1      -3.020 -14.520  19.351  0.00  0.00    +0.021 C 
ATOM     34  C   UNL     1      -3.222 -14.985  20.648  0.00  0.00    +0.003 C 
ATOM     35  C   UNL     1      -2.238 -14.862  21.601  0.00  0.00    +0.022 C 
ATOM     36  C   UNL     1      -2.497 -15.362  22.861  0.00  0.00    +0.038 C 
ATOM     37  C   UNL     1      -1.489 -15.254  23.803  0.00  0.00    +0.135 C 
ATOM     38  C   UNL     1      -0.269 -14.674  23.521  0.00  0.00    +0.054 C 
BRANCH  37  39
ATOM     39  O   UNL     1      -1.721 -15.751  25.070  0.00  0.00    -0.505 OA
ATOM     40  H   UNL     1      -2.545 -16.147  25.274  0.00  0.00    +0.292 HD
ENDBRANCH  37  39
ENDBRANCH  27  29
ENDBRANCH   1  27
BRANCH   2  41
ATOM     41  N   UNL     1       2.762 -13.352  24.391  0.00  0.00    -0.202 NA
ATOM     42  H   UNL     1       2.826 -14.345  24.167  0.00  0.00    +0.135 HD
BRANCH  41  43
ATOM     43  P   UNL     1       3.763 -13.046  25.755  0.00  0.00    +0.340 P 
ATOM     44  O   UNL     1       5.240 -12.993  25.401  0.00  0.00    -0.255 OA
BRANCH  43  45
ATOM     45  N   UNL     1       3.382 -11.583  26.630  0.00  0.00    -0.247 NA
ATOM     46  H   UNL     1       3.490 -10.779  26.012  0.00  0.00    +0.129 HD
ATOM     47  H   UNL     1       4.014 -11.488  27.425  0.00  0.00    +0.129 HD
ENDBRANCH  43  45
BRANCH  43  48
ATOM     48  O   UNL     1       3.563 -14.341  26.839  0.00  0.00    -0.322 OA
ATOM     49  H   UNL     1       3.767 -15.175  26.387  0.00  0.00    +0.220 HD
ENDBRANCH  43  48
ENDBRANCH  41  43
ENDBRANCH   2  41
TORSDOF 12
