REMARK  Name = =
REMARK  0 active torsions:
REMARK  status: ('A' for Active; 'I' for Inactive)
REMARK                            x       y       z     vdW  Elec       q    Type
REMARK                         _______ _______ _______ _____ _____    ______ ____
ROOT
ATOM      1  N   UNL     1      51.420 157.693  29.468  0.00  0.00    -0.293 NA
ATOM      2  C   UNL     1      50.335 156.981  30.061  0.00  0.00    +0.074 C 
ATOM      3  C   UNL     1      49.058 157.825  29.920  0.00  0.00    +0.043 C 
ATOM      4  C   UNL     1      49.269 158.998  30.797  0.00  0.00    -0.023 C 
ATOM      5  C   UNL     1      50.510 159.577  30.737  0.00  0.00    -0.010 C 
ATOM      6  C   UNL     1      51.569 159.055  29.842  0.00  0.00    +0.095 C 
ATOM      7  C   UNL     1      50.759 160.686  31.544  0.00  0.00    -0.003 C 
ATOM      8  C   UNL     1      49.760 161.153  32.366  0.00  0.00    -0.000 C 
ATOM      9  C   UNL     1      48.511 160.585  32.440  0.00  0.00    -0.000 C 
ATOM     10  C   UNL     1      48.290 159.484  31.625  0.00  0.00    -0.004 C 
ATOM     11  H   UNL     1      52.282 157.208  29.718  0.00  0.00    +0.124 HD
ENDROOT
TORSDOF 0
