REMARK  Name = =
REMARK  2 active torsions:
REMARK  status: ('A' for Active; 'I' for Inactive)
REMARK    1  A    between atoms: C_4  and  C_10
REMARK    2  A    between atoms: C_10  and  O_12
REMARK                            x       y       z     vdW  Elec       q    Type
REMARK                         _______ _______ _______ _____ _____    ______ ____
ROOT
ATOM      1  S   UNL     1      53.264 157.911  28.855  0.00  0.00    -0.115 S 
ATOM      2  C   UNL     1      53.013 159.259  30.015  0.00  0.00    +0.087 C 
ATOM      3  C   UNL     1      51.642 159.726  30.160  0.00  0.00    +0.007 C 
ATOM      4  C   UNL     1      50.528 159.006  29.946  0.00  0.00    +0.123 C 
ATOM      5  N   UNL     1      50.650 157.674  29.542  0.00  0.00    -0.271 N 
ATOM      6  C   UNL     1      51.663 157.148  28.662  0.00  0.00    +0.146 C 
ATOM      7  C   UNL     1      51.565 155.917  29.541  0.00  0.00    +0.085 C 
ATOM      8  C   UNL     1      50.151 156.362  29.612  0.00  0.00    +0.213 C 
ATOM      9  O   UNL     1      49.011 155.852  29.695  0.00  0.00    -0.202 OA
ENDROOT
BRANCH   4  10
ATOM     10  C   UNL     1      49.235 159.660  30.151  0.00  0.00    +0.351 C 
ATOM     11  O   UNL     1      48.203 159.034  29.834  0.00  0.00    -0.244 OA
BRANCH  10  12
ATOM     12  O   UNL     1      49.068 160.925  30.672  0.00  0.00    -0.476 OA
ATOM     13  H   UNL     1      49.816 161.431  30.923  0.00  0.00    +0.295 HD
ENDBRANCH  10  12
ENDBRANCH   4  10
TORSDOF 2
