REMARK  Name = =
REMARK  3 active torsions:
REMARK  status: ('A' for Active; 'I' for Inactive)
REMARK    1  A    between atoms: S_1  and  N_10
REMARK    2  A    between atoms: C_4  and  C_20
REMARK    3  A    between atoms: C_20  and  O_22
REMARK                            x       y       z     vdW  Elec       q    Type
REMARK                         _______ _______ _______ _____ _____    ______ ____
ROOT
ATOM      1  S   UNL     1      51.669 158.182  29.916  0.00  0.00    -0.156 S 
ATOM      2  C   UNL     1      52.275 159.970  29.993  0.00  0.00    +0.079 C 
ATOM      3  C   UNL     1      51.599 160.587  31.127  0.00  0.00    +0.006 C 
ATOM      4  C   UNL     1      50.362 160.366  31.530  0.00  0.00    +0.123 C 
ATOM      5  N   UNL     1      49.571 159.445  30.819  0.00  0.00    -0.271 N 
ATOM      6  C   UNL     1      50.012 158.566  29.765  0.00  0.00    +0.140 C 
ATOM      7  C   UNL     1      48.987 157.608  30.265  0.00  0.00    +0.085 C 
ATOM      8  C   UNL     1      48.288 158.889  30.647  0.00  0.00    +0.213 C 
ATOM      9  O   UNL     1      47.089 159.246  30.749  0.00  0.00    -0.202 OA
ATOM     10  H   UNL     1      51.843 157.281  30.920  0.00  0.00    +0.100 HD
ENDROOT
BRANCH   1  11
ATOM     11  N   UNL     1      52.562 157.170  28.972  0.00  0.00    -0.240 NA
ATOM     12  C   UNL     1      52.482 155.798  29.340  0.00  0.00    +0.108 C 
ATOM     13  C   UNL     1      52.357 154.846  28.237  0.00  0.00    -0.009 C 
ATOM     14  C   UNL     1      52.710 155.146  26.951  0.00  0.00    -0.023 C 
ATOM     15  C   UNL     1      52.587 154.245  25.930  0.00  0.00    -0.004 C 
ATOM     16  C   UNL     1      52.086 152.988  26.225  0.00  0.00    -0.000 C 
ATOM     17  C   UNL     1      51.721 152.653  27.508  0.00  0.00    -0.000 C 
ATOM     18  C   UNL     1      51.851 153.573  28.527  0.00  0.00    -0.003 C 
ATOM     19  C   UNL     1      53.244 156.523  26.704  0.00  0.00    +0.044 C 
ATOM     20  C   UNL     1      52.437 157.453  27.581  0.00  0.00    +0.087 C 
ENDBRANCH   1  11
BRANCH   4  21
ATOM     21  C   UNL     1      49.834 161.087  32.713  0.00  0.00    +0.351 C 
ATOM     22  O   UNL     1      48.800 160.732  33.295  0.00  0.00    -0.244 OA
BRANCH  21  23
ATOM     23  O   UNL     1      50.524 162.194  33.179  0.00  0.00    -0.476 OA
ATOM     24  H   UNL     1      51.308 162.473  32.748  0.00  0.00    +0.295 HD
ENDBRANCH  21  23
ENDBRANCH   4  21
TORSDOF 3
