REMARK  Name = =
REMARK  1 active torsions:
REMARK  status: ('A' for Active; 'I' for Inactive)
REMARK    1  A    between atoms: N_1  and  C_11
REMARK                            x       y       z     vdW  Elec       q    Type
REMARK                         _______ _______ _______ _____ _____    ______ ____
ROOT
ATOM      1  N   UNL     1      51.314 157.701  29.490  0.00  0.00    -0.263 N 
ATOM      2  C   UNL     1      50.225 156.778  29.704  0.00  0.00    +0.105 C 
ATOM      3  C   UNL     1      49.147 157.297  30.578  0.00  0.00    +0.048 C 
ATOM      4  C   UNL     1      49.063 158.744  30.731  0.00  0.00    -0.023 C 
ATOM      5  C   UNL     1      50.145 159.549  30.544  0.00  0.00    -0.006 C 
ATOM      6  C   UNL     1      51.446 158.968  30.174  0.00  0.00    +0.126 C 
ATOM      7  C   UNL     1      50.082 160.918  30.687  0.00  0.00    -0.003 C 
ATOM      8  C   UNL     1      48.892 161.530  31.032  0.00  0.00    -0.000 C 
ATOM      9  C   UNL     1      47.790 160.724  31.222  0.00  0.00    -0.000 C 
ATOM     10  C   UNL     1      47.867 159.353  31.076  0.00  0.00    -0.004 C 
ENDROOT
BRANCH   1  11
ATOM     11  C   UNL     1      52.298 157.345  28.567  0.00  0.00    +0.014 C 
ATOM     12  C   UNL     1      53.179 157.024  27.768  0.00  0.00    +0.007 C 
ENDBRANCH   1  11
TORSDOF 1
