REMARK  Name = =
REMARK  5 active torsions:
REMARK  status: ('A' for Active; 'I' for Inactive)
REMARK    1  A    between atoms: N_1  and  C_11
REMARK    2  A    between atoms: C_12  and  S_13
REMARK    3  A    between atoms: S_13  and  P_14
REMARK    4  A    between atoms: P_14  and  O_16
REMARK    5  A    between atoms: P_14  and  O_17
REMARK                            x       y       z     vdW  Elec       q    Type
REMARK                         _______ _______ _______ _____ _____    ______ ____
ROOT
ATOM      1  N   UNL     1      51.065 157.796  29.473  0.00  0.00    -0.263 N 
ATOM      2  C   UNL     1      49.660 157.619  29.696  0.00  0.00    +0.105 C 
ATOM      3  C   UNL     1      49.182 158.069  31.042  0.00  0.00    +0.048 C 
ATOM      4  C   UNL     1      49.693 159.453  31.322  0.00  0.00    -0.023 C 
ATOM      5  C   UNL     1      50.960 159.792  30.883  0.00  0.00    -0.006 C 
ATOM      6  C   UNL     1      51.788 158.823  30.168  0.00  0.00    +0.126 C 
ATOM      7  C   UNL     1      51.403 161.060  31.145  0.00  0.00    -0.003 C 
ATOM      8  C   UNL     1      50.612 161.980  31.831  0.00  0.00    -0.000 C 
ATOM      9  C   UNL     1      49.355 161.640  32.265  0.00  0.00    -0.000 C 
ATOM     10  C   UNL     1      48.905 160.343  31.995  0.00  0.00    -0.004 C 
ENDROOT
BRANCH   1  11
ATOM     11  C   UNL     1      51.752 156.975  28.575  0.00  0.00    +0.012 C 
ATOM     12  C   UNL     1      52.332 156.250  27.804  0.00  0.00    -0.002 C 
BRANCH  12  13
ATOM     13  S   UNL     1      53.191 155.190  26.656  0.00  0.00    +0.048 S 
BRANCH  13  14
ATOM     14  P   UNL     1      52.941 153.182  27.222  0.00  0.00    +0.398 P 
ATOM     15  O   UNL     1      54.213 152.439  26.822  0.00  0.00    -0.245 OA
BRANCH  14  16
ATOM     16  O   UNL     1      52.665 153.007  28.866  0.00  0.00    -0.316 OA
ATOM     17  H   UNL     1      53.418 153.367  29.360  0.00  0.00    +0.221 HD
ENDBRANCH  14  16
BRANCH  14  18
ATOM     18  O   UNL     1      51.635 152.558  26.309  0.00  0.00    -0.316 OA
ATOM     19  H   UNL     1      50.819 153.022  26.553  0.00  0.00    +0.221 HD
ENDBRANCH  14  18
ENDBRANCH  13  14
ENDBRANCH  12  13
ENDBRANCH   1  11
TORSDOF 5
