REMARK  Name = =
REMARK  13 active torsions:
REMARK  status: ('A' for Active; 'I' for Inactive)
REMARK    1  A    between atoms: S_1  and  C_3
REMARK    2  A    between atoms: S_1  and  P_14
REMARK    3  A    between atoms: S_1  and  S_18
REMARK    4  A    between atoms: C_2  and  N_4
REMARK    5  A    between atoms: P_14  and  O_16
REMARK    6  A    between atoms: P_14  and  O_17
REMARK    7  A    between atoms: S_18  and  C_19
REMARK    8  A    between atoms: S_18  and  S_25
REMARK    9  A    between atoms: C_19  and  N_21
REMARK   10  A    between atoms: N_21  and  S_22
REMARK   11  A    between atoms: S_22  and  N_23
REMARK   12  A    between atoms: S_25  and  C_26
REMARK   13  A    between atoms: C_26  and  N_28
REMARK                            x       y       z     vdW  Elec       q    Type
REMARK                         _______ _______ _______ _____ _____    ______ ____
ROOT
ATOM      1  S   UNL     1      53.057 154.731  27.764  0.00  0.00    -0.043 S 
ATOM      2  H   UNL     1      54.366 154.376  27.864  0.00  0.00    +0.116 HD
ENDROOT
BRANCH   1   4
ATOM      3  C   UNL     1      52.387 157.137  29.142  0.00  0.00    +0.011 C 
ATOM      4  C   UNL     1      52.706 155.958  28.459  0.00  0.00    -0.016 C 
BRANCH   3   5
ATOM      5  N   UNL     1      52.086 158.275  29.805  0.00  0.00    -0.263 N 
ATOM      6  C   UNL     1      52.533 159.561  29.499  0.00  0.00    +0.105 C 
ATOM      7  C   UNL     1      51.577 160.641  30.092  0.00  0.00    +0.048 C 
ATOM      8  C   UNL     1      50.170 160.196  30.079  0.00  0.00    -0.023 C 
ATOM      9  C   UNL     1      49.926 158.875  30.453  0.00  0.00    -0.006 C 
ATOM     10  C   UNL     1      51.047 158.092  30.919  0.00  0.00    +0.126 C 
ATOM     11  C   UNL     1      48.648 158.426  30.381  0.00  0.00    -0.003 C 
ATOM     12  C   UNL     1      47.605 159.167  29.979  0.00  0.00    -0.000 C 
ATOM     13  C   UNL     1      47.864 160.530  29.599  0.00  0.00    -0.000 C 
ATOM     14  C   UNL     1      49.145 160.987  29.665  0.00  0.00    -0.004 C 
ENDBRANCH   3   5
ENDBRANCH   1   4
BRANCH   1  15
ATOM     15  P   UNL     1      51.904 153.509  28.430  0.00  0.00    +0.385 P 
ATOM     16  O   UNL     1      52.608 152.558  29.367  0.00  0.00    -0.246 OA
BRANCH  15  17
ATOM     17  O   UNL     1      50.993 152.775  27.247  0.00  0.00    -0.316 OA
ATOM     18  H   UNL     1      51.580 152.328  26.618  0.00  0.00    +0.221 HD
ENDBRANCH  15  17
BRANCH  15  19
ATOM     19  O   UNL     1      50.762 154.265  29.482  0.00  0.00    -0.316 OA
ATOM     20  H   UNL     1      51.233 154.715  30.201  0.00  0.00    +0.221 HD
ENDBRANCH  15  19
ENDBRANCH   1  15
BRANCH   1  21
ATOM     21  S   UNL     1      52.433 155.040  25.889  0.00  0.00    -0.101 S 
ATOM     22  H   UNL     1      51.127 155.295  25.607  0.00  0.00    +0.110 HD
BRANCH  21  23
ATOM     23  C   UNL     1      52.984 153.634  25.269  0.00  0.00    +0.115 C 
ATOM     24  S   UNL     1      53.282 153.744  23.643  0.00  0.00    -0.028 S 
BRANCH  23  25
ATOM     25  N   UNL     1      53.327 152.408  25.857  0.00  0.00    -0.256 N 
ATOM     26  H   UNL     1      53.205 152.307  26.829  0.00  0.00    +0.163 HD
BRANCH  25  27
ATOM     27  S   UNL     1      53.957 151.053  24.960  0.00  0.00    +0.127 S 
BRANCH  27  28
ATOM     28  N   UNL     1      53.482 149.511  25.689  0.00  0.00    +0.025 NA
ATOM     29  O   UNL     1      52.361 149.119  25.601  0.00  0.00    -0.134 OA
ENDBRANCH  27  28
ENDBRANCH  25  27
ENDBRANCH  23  25
ENDBRANCH  21  23
BRANCH  21  30
ATOM     30  S   UNL     1      53.240 156.196  25.446  0.00  0.00    -0.041 S 
BRANCH  30  31
ATOM     31  C   UNL     1      54.666 156.495  24.701  0.00  0.00    +0.114 C 
ATOM     32  S   UNL     1      55.691 155.221  24.304  0.00  0.00    -0.028 S 
BRANCH  31  33
ATOM     33  N   UNL     1      55.183 157.760  24.306  0.00  0.00    -0.346 N 
ATOM     34  H   UNL     1      54.669 158.580  24.487  0.00  0.00    +0.143 HD
ATOM     35  H   UNL     1      56.055 157.815  23.852  0.00  0.00    +0.143 HD
ENDBRANCH  31  33
ENDBRANCH  30  31
ENDBRANCH  21  30
ENDBRANCH   1  21
TORSDOF 13
