MODEL 1
REMARK VINA RESULT:    -8.635      0.000      0.000
REMARK INTER + INTRA:         -15.763
REMARK INTER:                 -13.431
REMARK INTRA:                  -2.332
REMARK UNBOUND:                -2.332
REMARK  Name = =
REMARK  11 active torsions:
REMARK  status: ('A' for Active; 'I' for Inactive)
REMARK    1  A    between atoms: S_1  and  C_14
REMARK    2  A    between atoms: C_2  and  O_28
REMARK    3  A    between atoms: C_4  and  C_25
REMARK    4  A    between atoms: N_10  and  C_16
REMARK    5  A    between atoms: N_15  and  N_21
REMARK    6  A    between atoms: N_21  and  C_22
REMARK    7  A    between atoms: C_22  and  N_24
REMARK    8  A    between atoms: C_25  and  O_27
REMARK    9  A    between atoms: O_28  and  C_29
REMARK   10  A    between atoms: C_29  and  C_31
REMARK   11  A    between atoms: C_34  and  O_37
REMARK                            x       y       z     vdW  Elec       q    Type
REMARK                         _______ _______ _______ _____ _____    ______ ____
ROOT
ATOM      1  S   UNL     1     -21.341 -40.598  23.586  0.00  0.00    -0.119 S 
ATOM      2  C   UNL     1     -19.702 -40.667  23.031  0.00  0.00    +0.230 C 
ATOM      3  C   UNL     1     -19.656 -40.355  21.581  0.00  0.00    +0.048 C 
ATOM      4  C   UNL     1     -20.458 -39.479  21.016  0.00  0.00    +0.127 C 
ATOM      5  N   UNL     1     -21.443 -38.747  21.711  0.00  0.00    -0.272 N 
ATOM      6  C   UNL     1     -21.613 -38.788  23.170  0.00  0.00    +0.137 C 
ATOM      7  C   UNL     1     -23.067 -38.484  23.025  0.00  0.00    +0.084 C 
ATOM      8  C   UNL     1     -22.557 -37.853  21.740  0.00  0.00    +0.212 C 
ATOM      9  O   UNL     1     -23.018 -36.919  21.062  0.00  0.00    -0.202 OA
ATOM     10  H   UNL     1     -22.097 -41.582  23.027  0.00  0.00    +0.096 HD
ENDROOT
BRANCH   1  15
ATOM     11  N   UNL     1     -22.209 -42.479  25.404  0.00  0.00    -0.183 N 
ATOM     12  C   UNL     1     -22.108 -43.519  24.459  0.00  0.00    +0.311 C 
ATOM     13  O   UNL     1     -21.822 -43.378  23.266  0.00  0.00    -0.252 OA
ATOM     14  N   UNL     1     -22.368 -44.869  24.958  0.00  0.00    -0.313 N 
ATOM     15  C   UNL     1     -21.921 -41.147  25.128  0.00  0.00    +0.173 C 
ATOM     16  N   UNL     1     -22.075 -40.308  26.092  0.00  0.00    -0.159 NA
ATOM     17  H   UNL     1     -22.598 -45.007  25.905  0.00  0.00    +0.147 HD
ATOM     18  H   UNL     1     -22.314 -45.639  24.347  0.00  0.00    +0.147 HD
BRANCH  11  19
ATOM     19  C   UNL     1     -22.655 -42.921  26.712  0.00  0.00    +0.185 C 
ATOM     20  N   UNL     1     -23.923 -43.021  27.170  0.00  0.00    -0.188 NA
ATOM     21  C   UNL     1     -23.887 -43.508  28.432  0.00  0.00    +0.286 C 
ATOM     22  O   UNL     1     -22.637 -43.711  28.770  0.00  0.00    -0.427 OA
ATOM     23  C   UNL     1     -21.867 -43.365  27.747  0.00  0.00    +0.217 C 
ENDBRANCH  11  19
BRANCH  16  24
ATOM     24  N   UNL     1     -22.451 -40.317  27.369  0.00  0.00    -0.216 N 
ATOM     25  H   UNL     1     -21.926 -40.857  28.002  0.00  0.00    +0.176 HD
BRANCH  24  26
ATOM     26  C   UNL     1     -23.584 -39.581  27.880  0.00  0.00    +0.147 C 
ATOM     27  S   UNL     1     -23.976 -38.111  27.282  0.00  0.00    -0.017 S 
BRANCH  26  28
ATOM     28  N   UNL     1     -24.403 -40.090  28.912  0.00  0.00    -0.339 N 
ATOM     29  H   UNL     1     -25.117 -39.530  29.294  0.00  0.00    +0.144 HD
ATOM     30  H   UNL     1     -24.260 -41.004  29.248  0.00  0.00    +0.144 HD
ENDBRANCH  26  28
ENDBRANCH  24  26
ENDBRANCH  16  24
ENDBRANCH   1  15
BRANCH   4  31
ATOM     31  C   UNL     1     -20.312 -39.259  19.578  0.00  0.00    +0.351 C 
ATOM     32  O   UNL     1     -21.293 -39.476  18.830  0.00  0.00    -0.244 OA
BRANCH  31  33
ATOM     33  O   UNL     1     -19.134 -38.819  18.997  0.00  0.00    -0.476 OA
ATOM     34  H   UNL     1     -18.746 -39.308  18.298  0.00  0.00    +0.295 HD
ENDBRANCH  31  33
ENDBRANCH   4  31
BRANCH   2  35
ATOM     35  O   UNL     1     -18.998 -41.810  23.374  0.00  0.00    -0.435 OA
BRANCH  35  36
ATOM     36  C   UNL     1     -17.740 -41.639  23.991  0.00  0.00    +0.342 C 
ATOM     37  O   UNL     1     -16.731 -41.336  23.266  0.00  0.00    -0.245 OA
BRANCH  36  38
ATOM     38  C   UNL     1     -17.524 -41.789  25.409  0.00  0.00    +0.076 C 
ATOM     39  C   UNL     1     -16.286 -42.084  25.921  0.00  0.00    +0.010 C 
ATOM     40  C   UNL     1     -16.093 -42.214  27.304  0.00  0.00    +0.037 C 
ATOM     41  C   UNL     1     -17.160 -42.042  28.159  0.00  0.00    +0.134 C 
ATOM     42  C   UNL     1     -18.402 -41.743  27.650  0.00  0.00    +0.037 C 
ATOM     43  C   UNL     1     -18.564 -41.624  26.298  0.00  0.00    +0.010 C 
BRANCH  41  44
ATOM     44  O   UNL     1     -16.977 -42.165  29.510  0.00  0.00    -0.506 OA
ATOM     45  H   UNL     1     -17.108 -41.425  30.071  0.00  0.00    +0.292 HD
ENDBRANCH  41  44
ENDBRANCH  36  38
ENDBRANCH  35  36
ENDBRANCH   2  35
TORSDOF 11
ENDMDL
