REMARK  Name = =
REMARK  11 active torsions:
REMARK  status: ('A' for Active; 'I' for Inactive)
REMARK    1  A    between atoms: S_1  and  C_14
REMARK    2  A    between atoms: C_2  and  O_28
REMARK    3  A    between atoms: C_4  and  C_25
REMARK    4  A    between atoms: N_10  and  C_16
REMARK    5  A    between atoms: N_15  and  N_21
REMARK    6  A    between atoms: N_21  and  C_22
REMARK    7  A    between atoms: C_22  and  N_24
REMARK    8  A    between atoms: C_25  and  O_27
REMARK    9  A    between atoms: O_28  and  C_29
REMARK   10  A    between atoms: C_29  and  C_31
REMARK   11  A    between atoms: C_34  and  O_37
REMARK                            x       y       z     vdW  Elec       q    Type
REMARK                         _______ _______ _______ _____ _____    ______ ____
ROOT
ATOM      1  S   UNL     1     -14.615 -42.625  27.261  0.00  0.00    -0.119 S 
ATOM      2  C   UNL     1     -16.310 -42.278  27.187  0.00  0.00    +0.230 C 
ATOM      3  C   UNL     1     -16.659 -41.794  25.828  0.00  0.00    +0.048 C 
ATOM      4  C   UNL     1     -16.079 -42.253  24.740  0.00  0.00    +0.127 C 
ATOM      5  N   UNL     1     -15.071 -43.239  24.738  0.00  0.00    -0.272 N 
ATOM      6  C   UNL     1     -14.631 -43.959  25.941  0.00  0.00    +0.137 C 
ATOM      7  C   UNL     1     -13.272 -44.145  25.351  0.00  0.00    +0.084 C 
ATOM      8  C   UNL     1     -14.079 -44.020  24.069  0.00  0.00    +0.212 C 
ATOM      9  O   UNL     1     -13.860 -44.469  22.931  0.00  0.00    -0.202 OA
ATOM     10  H   UNL     1     -13.870 -41.495  27.127  0.00  0.00    +0.096 HD
ENDROOT
BRANCH   1  15
ATOM     11  N   UNL     1     -12.327 -42.765  28.791  0.00  0.00    -0.183 N 
ATOM     12  C   UNL     1     -11.519 -42.333  27.721  0.00  0.00    +0.311 C 
ATOM     13  O   UNL     1     -11.906 -42.135  26.566  0.00  0.00    -0.252 OA
ATOM     14  N   UNL     1     -10.108 -42.108  28.031  0.00  0.00    -0.313 N 
ATOM     15  C   UNL     1     -13.702 -42.954  28.701  0.00  0.00    +0.173 C 
ATOM     16  N   UNL     1     -14.302 -43.367  29.762  0.00  0.00    -0.159 NA
ATOM     17  H   UNL     1      -9.775 -42.259  28.945  0.00  0.00    +0.147 HD
ATOM     18  H   UNL     1      -9.491 -41.806  27.326  0.00  0.00    +0.147 HD
BRANCH  11  19
ATOM     19  C   UNL     1     -11.590 -43.009  30.017  0.00  0.00    +0.185 C 
ATOM     20  N   UNL     1     -10.973 -44.147  30.406  0.00  0.00    -0.188 NA
ATOM     21  C   UNL     1     -10.378 -43.927  31.601  0.00  0.00    +0.286 C 
ATOM     22  O   UNL     1     -10.608 -42.689  31.965  0.00  0.00    -0.427 OA
ATOM     23  C   UNL     1     -11.340 -42.108  31.024  0.00  0.00    +0.217 C 
ENDBRANCH  11  19
BRANCH  16  24
ATOM     24  N   UNL     1     -13.996 -43.693  31.016  0.00  0.00    -0.216 N 
ATOM     25  H   UNL     1     -13.861 -42.965  31.664  0.00  0.00    +0.176 HD
BRANCH  24  26
ATOM     26  C   UNL     1     -13.850 -45.053  31.481  0.00  0.00    +0.147 C 
ATOM     27  S   UNL     1     -14.433 -45.515  32.936  0.00  0.00    -0.017 S 
BRANCH  26  28
ATOM     28  N   UNL     1     -13.202 -46.042  30.709  0.00  0.00    -0.339 N 
ATOM     29  H   UNL     1     -12.834 -45.813  29.825  0.00  0.00    +0.144 HD
ATOM     30  H   UNL     1     -13.119 -46.960  31.055  0.00  0.00    +0.144 HD
ENDBRANCH  26  28
ENDBRANCH  24  26
ENDBRANCH  16  24
ENDBRANCH   1  15
BRANCH   4  31
ATOM     31  C   UNL     1     -16.512 -41.697  23.459  0.00  0.00    +0.351 C 
ATOM     32  O   UNL     1     -15.738 -41.766  22.476  0.00  0.00    -0.244 OA
BRANCH  31  33
ATOM     33  O   UNL     1     -17.745 -41.093  23.276  0.00  0.00    -0.476 OA
ATOM     34  H   UNL     1     -18.345 -41.027  23.993  0.00  0.00    +0.295 HD
ENDBRANCH  31  33
ENDBRANCH   4  31
BRANCH   2  35
ATOM     35  O   UNL     1     -16.805 -41.477  28.203  0.00  0.00    -0.435 OA
BRANCH  35  36
ATOM     36  C   UNL     1     -18.037 -41.849  28.784  0.00  0.00    +0.342 C 
ATOM     37  O   UNL     1     -18.084 -42.081  30.040  0.00  0.00    -0.245 OA
BRANCH  36  38
ATOM     38  C   UNL     1     -19.260 -41.985  28.032  0.00  0.00    +0.076 C 
ATOM     39  C   UNL     1     -19.756 -40.956  27.272  0.00  0.00    +0.010 C 
ATOM     40  C   UNL     1     -20.940 -41.111  26.537  0.00  0.00    +0.037 C 
ATOM     41  C   UNL     1     -21.613 -42.312  26.578  0.00  0.00    +0.134 C 
ATOM     42  C   UNL     1     -21.119 -43.348  27.336  0.00  0.00    +0.037 C 
ATOM     43  C   UNL     1     -19.964 -43.170  28.045  0.00  0.00    +0.010 C 
BRANCH  41  44
ATOM     44  O   UNL     1     -22.769 -42.470  25.861  0.00  0.00    -0.506 OA
ATOM     45  H   UNL     1     -23.102 -41.761  25.346  0.00  0.00    +0.292 HD
ENDBRANCH  41  44
ENDBRANCH  36  38
ENDBRANCH  35  36
ENDBRANCH   2  35
TORSDOF 11
