MODEL 1
REMARK VINA RESULT:    -6.635      0.000      0.000
REMARK INTER + INTRA:          -8.252
REMARK INTER:                  -8.381
REMARK INTRA:                   0.128
REMARK UNBOUND:                 0.128
REMARK  Name = =
REMARK  6 active torsions:
REMARK  status: ('A' for Active; 'I' for Inactive)
REMARK    1  A    between atoms: N_1  and  N_32
REMARK    2  A    between atoms: C_12  and  O_35
REMARK    3  A    between atoms: C_17  and  S_36
REMARK    4  A    between atoms: N_32  and  C_33
REMARK    5  A    between atoms: S_36  and  S_37
REMARK    6  A    between atoms: S_36  and  S_38
REMARK                            x       y       z     vdW  Elec       q    Type
REMARK                         _______ _______ _______ _____ _____    ______ ____
ROOT
ATOM      1  N   UNL     1      61.199 164.079  39.471  0.00  0.00    -0.200 NA
ATOM      2  C   UNL     1      61.482 162.742  39.045  0.00  0.00    +0.082 C 
ATOM      3  C   UNL     1      62.459 162.158  39.985  0.00  0.00    +0.034 C 
ATOM      4  C   UNL     1      61.869 161.928  41.294  0.00  0.00    +0.069 C 
ATOM      5  C   UNL     1      62.673 161.237  42.341  0.00  0.00    +0.226 C 
ATOM      6  O   UNL     1      61.683 160.418  42.995  0.00  0.00    -0.469 OA
ATOM      7  C   UNL     1      60.699 160.088  42.093  0.00  0.00    +0.168 C 
ATOM      8  C   UNL     1      60.772 160.954  41.066  0.00  0.00    +0.014 C 
ATOM      9  C   UNL     1      59.984 160.985  39.956  0.00  0.00    -0.022 C 
ATOM     10  C   UNL     1      58.998 160.027  39.866  0.00  0.00    -0.001 C 
ATOM     11  C   UNL     1      58.847 159.084  40.887  0.00  0.00    +0.039 C 
ATOM     12  C   UNL     1      59.694 159.116  41.993  0.00  0.00    +0.167 C 
ATOM     13  C   UNL     1      60.180 161.996  38.909  0.00  0.00    +0.044 C 
ATOM     14  C   UNL     1      63.736 160.399  41.742  0.00  0.00    +0.191 C 
ATOM     15  O   UNL     1      64.444 159.750  42.488  0.00  0.00    -0.292 OA
ATOM     16  C   UNL     1      63.994 160.299  40.289  0.00  0.00    +0.079 C 
ATOM     17  C   UNL     1      63.684 161.589  39.558  0.00  0.00    +0.054 C 
ATOM     18  C   UNL     1      61.217 163.205  41.776  0.00  0.00    +0.027 C 
ATOM     19  C   UNL     1      61.443 164.358  40.832  0.00  0.00    +0.093 C 
ENDROOT
BRANCH   1  32
ATOM     20  C   UNL     1      60.277 165.314  37.627  0.00  0.00    +0.146 C 
ATOM     21  N   UNL     1      59.951 164.706  36.555  0.00  0.00    -0.245 NA
ATOM     22  C   UNL     1      59.963 165.016  35.162  0.00  0.00    +0.212 C 
ATOM     23  C   UNL     1      61.070 165.874  34.725  0.00  0.00    +0.251 C 
ATOM     24  O   UNL     1      61.638 165.509  33.643  0.00  0.00    -0.273 OA
ATOM     25  N   UNL     1      61.570 167.038  35.357  0.00  0.00    -0.282 N 
ATOM     26  C   UNL     1      61.400 167.436  36.715  0.00  0.00    +0.053 C 
ATOM     27  C   UNL     1      60.822 166.663  37.727  0.00  0.00    +0.046 C 
ATOM     28  C   UNL     1      60.748 167.216  38.969  0.00  0.00    +0.004 C 
ATOM     29  C   UNL     1      61.218 168.477  39.215  0.00  0.00    +0.000 C 
ATOM     30  C   UNL     1      61.782 169.223  38.214  0.00  0.00    +0.001 C 
ATOM     31  C   UNL     1      61.879 168.703  36.942  0.00  0.00    +0.015 C 
ATOM     32  N   UNL     1      60.124 164.678  38.891  0.00  0.00    -0.205 N 
ATOM     33  H   UNL     1      62.098 167.646  34.791  0.00  0.00    +0.155 HD
BRANCH  32  34
ATOM     34  C   UNL     1      58.811 164.722  39.463  0.00  0.00    +0.125 C 
ATOM     35  S   UNL     1      58.414 165.804  40.624  0.00  0.00    -0.031 S 
ENDBRANCH  32  34
ENDBRANCH   1  32
BRANCH  12  36
ATOM     36  O   UNL     1      59.579 158.192  43.034  0.00  0.00    -0.503 OA
ATOM     37  H   UNL     1      59.747 158.458  43.917  0.00  0.00    +0.292 HD
ENDBRANCH  12  36
BRANCH  17  38
ATOM     38  S   UNL     1      65.106 162.623  39.728  0.00  0.00    -0.152 S 
ATOM     39  H   UNL     1      65.434 163.418  40.782  0.00  0.00    +0.104 HD
BRANCH  38  40
ATOM     40  S   UNL     1      66.312 161.502  39.716  0.00  0.00    -0.123 S 
ATOM     41  H   UNL     1      66.621 161.154  40.993  0.00  0.00    +0.113 HD
ENDBRANCH  38  40
BRANCH  38  42
ATOM     42  S   UNL     1      64.755 163.702  38.370  0.00  0.00    -0.123 S 
ATOM     43  H   UNL     1      65.263 163.169  37.226  0.00  0.00    +0.113 HD
ENDBRANCH  38  42
ENDBRANCH  17  38
TORSDOF 6
ENDMDL
