REMARK  Name = =
REMARK  6 active torsions:
REMARK  status: ('A' for Active; 'I' for Inactive)
REMARK    1  A    between atoms: N_1  and  N_32
REMARK    2  A    between atoms: C_12  and  O_35
REMARK    3  A    between atoms: C_17  and  S_36
REMARK    4  A    between atoms: N_32  and  C_33
REMARK    5  A    between atoms: S_36  and  S_37
REMARK    6  A    between atoms: S_36  and  S_38
REMARK                            x       y       z     vdW  Elec       q    Type
REMARK                         _______ _______ _______ _____ _____    ______ ____
ROOT
ATOM      1  N   UNL     1      51.640 158.194  29.715  0.00  0.00    -0.200 NA
ATOM      2  C   UNL     1      52.814 157.386  29.579  0.00  0.00    +0.082 C 
ATOM      3  C   UNL     1      52.429 156.124  28.916  0.00  0.00    +0.034 C 
ATOM      4  C   UNL     1      52.062 156.342  27.526  0.00  0.00    +0.069 C 
ATOM      5  C   UNL     1      51.754 155.166  26.665  0.00  0.00    +0.226 C 
ATOM      6  O   UNL     1      52.331 155.553  25.401  0.00  0.00    -0.469 OA
ATOM      7  C   UNL     1      53.399 156.389  25.628  0.00  0.00    +0.168 C 
ATOM      8  C   UNL     1      53.284 156.879  26.876  0.00  0.00    +0.014 C 
ATOM      9  C   UNL     1      54.128 157.742  27.504  0.00  0.00    -0.022 C 
ATOM     10  C   UNL     1      55.226 158.170  26.789  0.00  0.00    -0.001 C 
ATOM     11  C   UNL     1      55.428 157.713  25.483  0.00  0.00    +0.039 C 
ATOM     12  C   UNL     1      54.518 156.828  24.908  0.00  0.00    +0.167 C 
ATOM     13  C   UNL     1      53.875 158.194  28.878  0.00  0.00    +0.044 C 
ATOM     14  C   UNL     1      52.394 153.935  27.180  0.00  0.00    +0.191 C 
ATOM     15  O   UNL     1      52.252 152.905  26.547  0.00  0.00    -0.292 OA
ATOM     16  C   UNL     1      53.200 153.874  28.419  0.00  0.00    +0.079 C 
ATOM     17  C   UNL     1      52.716 154.852  29.470  0.00  0.00    +0.054 C 
ATOM     18  C   UNL     1      51.020 157.435  27.453  0.00  0.00    +0.027 C 
ATOM     19  C   UNL     1      50.590 157.913  28.816  0.00  0.00    +0.093 C 
ENDROOT
BRANCH   1  32
ATOM     20  C   UNL     1      50.953 160.129  30.964  0.00  0.00    +0.146 C 
ATOM     21  N   UNL     1      51.253 160.228  32.198  0.00  0.00    -0.245 NA
ATOM     22  C   UNL     1      50.631 160.778  33.359  0.00  0.00    +0.212 C 
ATOM     23  C   UNL     1      49.167 160.676  33.388  0.00  0.00    +0.251 C 
ATOM     24  O   UNL     1      48.677 160.308  34.506  0.00  0.00    -0.273 OA
ATOM     25  N   UNL     1      48.257 160.934  32.335  0.00  0.00    -0.282 N 
ATOM     26  C   UNL     1      48.527 160.973  30.936  0.00  0.00    +0.053 C 
ATOM     27  C   UNL     1      49.733 160.612  30.327  0.00  0.00    +0.046 C 
ATOM     28  C   UNL     1      49.802 160.716  28.971  0.00  0.00    +0.004 C 
ATOM     29  C   UNL     1      48.735 161.157  28.237  0.00  0.00    +0.000 C 
ATOM     30  C   UNL     1      47.560 161.507  28.847  0.00  0.00    +0.001 C 
ATOM     31  C   UNL     1      47.445 161.417  30.217  0.00  0.00    +0.015 C 
ATOM     32  N   UNL     1      51.845 159.496  30.054  0.00  0.00    -0.205 N 
ATOM     33  H   UNL     1      47.325 161.107  32.601  0.00  0.00    +0.155 HD
BRANCH  32  34
ATOM     34  C   UNL     1      52.917 160.306  29.556  0.00  0.00    +0.125 C 
ATOM     35  S   UNL     1      53.726 161.351  30.520  0.00  0.00    -0.031 S 
ENDBRANCH  32  34
ENDBRANCH   1  32
BRANCH  12  36
ATOM     36  O   UNL     1      54.683 156.347  23.607  0.00  0.00    -0.503 OA
ATOM     37  H   UNL     1      55.420 156.620  23.097  0.00  0.00    +0.292 HD
ENDBRANCH  12  36
BRANCH  17  38
ATOM     38  S   UNL     1      51.377 154.068  30.315  0.00  0.00    -0.152 S 
ATOM     39  H   UNL     1      51.288 153.777  31.640  0.00  0.00    +0.104 HD
BRANCH  38  40
ATOM     40  S   UNL     1      50.177 155.174  30.093  0.00  0.00    -0.123 S 
ATOM     41  H   UNL     1      50.151 155.559  28.789  0.00  0.00    +0.113 HD
ENDBRANCH  38  40
BRANCH  38  42
ATOM     42  S   UNL     1      51.456 152.521  29.460  0.00  0.00    -0.123 S 
ATOM     43  H   UNL     1      51.547 152.747  28.122  0.00  0.00    +0.113 HD
ENDBRANCH  38  42
ENDBRANCH  17  38
TORSDOF 6
