REMARK  Name = =
REMARK  0 active torsions:
REMARK  status: ('A' for Active; 'I' for Inactive)
REMARK                            x       y       z     vdW  Elec       q    Type
REMARK                         _______ _______ _______ _____ _____    ______ ____
ROOT
ATOM      1  N   UNL     1      52.270 155.848  28.269  0.00  0.00    -0.293 NA
ATOM      2  C   UNL     1      52.374 155.745  26.804  0.00  0.00    +0.101 C 
ATOM      3  C   UNL     1      53.155 154.481  26.530  0.00  0.00    +0.159 C 
ATOM      4  O   UNL     1      52.613 153.355  27.064  0.00  0.00    -0.351 OA
ATOM      5  C   UNL     1      52.122 153.440  28.328  0.00  0.00    +0.159 C 
ATOM      6  C   UNL     1      51.422 154.717  28.666  0.00  0.00    +0.101 C 
ATOM      7  H   UNL     1      53.191 155.775  28.701  0.00  0.00    +0.123 HD
ENDROOT
TORSDOF 0
