REMARK  Name = =
REMARK  1 active torsions:
REMARK  status: ('A' for Active; 'I' for Inactive)
REMARK    1  A    between atoms: N_1  and  C_7
REMARK                            x       y       z     vdW  Elec       q    Type
REMARK                         _______ _______ _______ _____ _____    ______ ____
ROOT
ATOM      1  N   UNL     1      51.979 154.963  28.284  0.00  0.00    -0.264 NA
ATOM      2  C   UNL     1      52.283 154.760  26.888  0.00  0.00    +0.105 C 
ATOM      3  C   UNL     1      53.140 153.487  26.826  0.00  0.00    +0.159 C 
ATOM      4  O   UNL     1      52.424 152.384  27.218  0.00  0.00    -0.351 OA
ATOM      5  C   UNL     1      51.713 152.531  28.381  0.00  0.00    +0.159 C 
ATOM      6  C   UNL     1      51.985 153.788  29.135  0.00  0.00    +0.105 C 
ENDROOT
BRANCH   1   7
ATOM      7  C   UNL     1      51.681 156.242  28.845  0.00  0.00    +0.116 C 
ATOM      8  C   UNL     1      50.590 156.555  29.522  0.00  0.00    +0.024 C 
ATOM      9  C   UNL     1      50.607 157.970  29.958  0.00  0.00    +0.010 C 
ATOM     10  C   UNL     1      52.033 158.380  29.789  0.00  0.00    +0.066 C 
ATOM     11  C   UNL     1      52.534 157.428  28.768  0.00  0.00    +0.165 C 
ATOM     12  O   UNL     1      53.511 157.676  28.026  0.00  0.00    -0.295 OA
ENDBRANCH   1   7
TORSDOF 1
