REMARK  Name = =
REMARK  2 active torsions:
REMARK  status: ('A' for Active; 'I' for Inactive)
REMARK    1  A    between atoms: N_1  and  C_7
REMARK    2  A    between atoms: C_2  and  C_13
REMARK                            x       y       z     vdW  Elec       q    Type
REMARK                         _______ _______ _______ _____ _____    ______ ____
ROOT
ATOM      1  N   UNL     1      52.632 155.929  27.836  0.00  0.00    -0.260 NA
ATOM      2  C   UNL     1      52.225 156.089  29.209  0.00  0.00    +0.129 C 
ATOM      3  C   UNL     1      52.948 157.166  29.942  0.00  0.00    +0.164 C 
ATOM      4  O   UNL     1      53.485 158.165  29.217  0.00  0.00    -0.350 OA
ATOM      5  C   UNL     1      53.899 157.906  27.956  0.00  0.00    +0.160 C 
ATOM      6  C   UNL     1      52.828 157.196  27.119  0.00  0.00    +0.105 C 
ENDROOT
BRANCH   1   7
ATOM      7  C   UNL     1      52.831 154.670  27.207  0.00  0.00    +0.116 C 
ATOM      8  C   UNL     1      52.623 154.415  25.932  0.00  0.00    +0.024 C 
ATOM      9  C   UNL     1      52.940 153.001  25.644  0.00  0.00    +0.010 C 
ATOM     10  C   UNL     1      52.739 152.341  26.983  0.00  0.00    +0.066 C 
ATOM     11  C   UNL     1      53.292 153.439  27.864  0.00  0.00    +0.165 C 
ATOM     12  O   UNL     1      53.972 153.331  28.894  0.00  0.00    -0.295 OA
ENDBRANCH   1   7
BRANCH   2  13
ATOM     13  C   UNL     1      50.747 156.212  29.316  0.00  0.00    +0.081 C 
ATOM     14  N   UNL     1      50.157 157.323  29.080  0.00  0.00    -0.300 NA
ATOM     15  H   UNL     1      49.177 157.386  29.156  0.00  0.00    +0.186 HD
ENDBRANCH   2  13
TORSDOF 2
