REMARK  Name = =
REMARK  3 active torsions:
REMARK  status: ('A' for Active; 'I' for Inactive)
REMARK    1  A    between atoms: N_1  and  C_7
REMARK    2  A    between atoms: C_2  and  C_13
REMARK    3  A    between atoms: C_13  and  C_15
REMARK                            x       y       z     vdW  Elec       q    Type
REMARK                         _______ _______ _______ _____ _____    ______ ____
ROOT
ATOM      1  N   UNL     1      52.283 154.842  28.523  0.00  0.00    -0.297 N 
ATOM      2  C   UNL     1      52.692 154.487  27.181  0.00  0.00    +0.144 C 
ATOM      3  C   UNL     1      51.545 153.603  26.643  0.00  0.00    +0.168 C 
ATOM      4  O   UNL     1      50.629 153.274  27.606  0.00  0.00    -0.350 OA
ATOM      5  C   UNL     1      51.122 152.798  28.791  0.00  0.00    +0.164 C 
ATOM      6  C   UNL     1      52.064 153.773  29.468  0.00  0.00    +0.123 C 
ENDROOT
BRANCH   1   7
ATOM      7  C   UNL     1      52.085 156.176  28.913  0.00  0.00    +0.088 C 
ATOM      8  C   UNL     1      52.888 157.181  28.548  0.00  0.00    +0.018 C 
ATOM      9  C   UNL     1      52.413 158.465  29.121  0.00  0.00    +0.005 C 
ATOM     10  C   UNL     1      51.148 158.187  29.859  0.00  0.00    +0.043 C 
ATOM     11  C   UNL     1      51.009 156.720  29.762  0.00  0.00    +0.209 C 
ATOM     12  O   UNL     1      50.113 156.041  30.315  0.00  0.00    -0.285 OA
ENDBRANCH   1   7
BRANCH   2  13
ATOM     13  C   UNL     1      53.871 153.584  27.308  0.00  0.00    +0.085 C 
ATOM     14  N   UNL     1      54.570 153.568  28.392  0.00  0.00    -0.300 NA
ATOM     15  H   UNL     1      54.317 154.143  29.150  0.00  0.00    +0.186 HD
BRANCH  13  16
ATOM     16  C   UNL     1      54.275 152.713  26.193  0.00  0.00    +0.090 C 
ATOM     17  N   UNL     1      55.458 152.175  26.172  0.00  0.00    -0.189 NA
ATOM     18  N   UNL     1      55.775 151.366  25.091  0.00  0.00    -0.258 N 
ATOM     19  C   UNL     1      54.801 150.382  24.680  0.00  0.00    +0.107 C 
ATOM     20  C   UNL     1      53.384 150.859  24.812  0.00  0.00    +0.029 C 
ATOM     21  C   UNL     1      53.395 152.370  25.052  0.00  0.00    +0.050 C 
ATOM     22  H   UNL     1      56.634 151.459  24.620  0.00  0.00    +0.169 HD
ENDBRANCH  13  16
ENDBRANCH   2  13
TORSDOF 3
