REMARK  Name = =
REMARK  4 active torsions:
REMARK  status: ('A' for Active; 'I' for Inactive)
REMARK    1  A    between atoms: N_1  and  C_7
REMARK    2  A    between atoms: C_2  and  C_19
REMARK    3  A    between atoms: C_9  and  N_13
REMARK    4  A    between atoms: C_19  and  C_21
REMARK                            x       y       z     vdW  Elec       q    Type
REMARK                         _______ _______ _______ _____ _____    ______ ____
ROOT
ATOM      1  N   UNL     1      52.867 154.309  28.347  0.00  0.00    -0.260 NA
ATOM      2  C   UNL     1      53.671 153.929  27.205  0.00  0.00    +0.129 C 
ATOM      3  C   UNL     1      54.602 152.827  27.688  0.00  0.00    +0.164 C 
ATOM      4  O   UNL     1      54.951 152.995  29.014  0.00  0.00    -0.350 OA
ATOM      5  C   UNL     1      53.900 152.845  29.897  0.00  0.00    +0.160 C 
ATOM      6  C   UNL     1      52.564 153.227  29.298  0.00  0.00    +0.105 C 
ENDROOT
BRANCH   1   7
ATOM      7  C   UNL     1      52.378 155.622  28.589  0.00  0.00    +0.117 C 
ATOM      8  C   UNL     1      51.388 156.012  29.372  0.00  0.00    +0.040 C 
ATOM      9  C   UNL     1      51.230 157.461  29.317  0.00  0.00    +0.068 C 
ATOM     10  C   UNL     1      52.549 157.949  28.777  0.00  0.00    +0.082 C 
ATOM     11  C   UNL     1      52.970 156.806  27.934  0.00  0.00    +0.166 C 
ATOM     12  O   UNL     1      53.670 156.802  26.893  0.00  0.00    -0.295 OA
BRANCH   9  13
ATOM     13  N   UNL     1      50.856 158.070  30.544  0.00  0.00    -0.260 NA
ATOM     14  C   UNL     1      49.662 157.612  31.142  0.00  0.00    +0.146 C 
ATOM     15  N   UNL     1      48.588 158.583  30.909  0.00  0.00    -0.284 NA
ATOM     16  C   UNL     1      48.929 159.737  31.719  0.00  0.00    +0.071 C 
ATOM     17  C   UNL     1      50.187 160.345  31.217  0.00  0.00    +0.034 C 
ATOM     18  C   UNL     1      51.236 159.400  30.770  0.00  0.00    +0.075 C 
ATOM     19  H   UNL     1      47.689 158.197  31.198  0.00  0.00    +0.125 HD
ENDBRANCH   9  13
ENDBRANCH   1   7
BRANCH   2  20
ATOM     20  C   UNL     1      52.783 153.376  26.123  0.00  0.00    +0.081 C 
ATOM     21  N   UNL     1      51.747 154.051  25.770  0.00  0.00    -0.300 NA
ATOM     22  H   UNL     1      51.547 154.911  26.206  0.00  0.00    +0.186 HD
BRANCH  20  23
ATOM     23  C   UNL     1      53.136 152.095  25.517  0.00  0.00    +0.090 C 
ATOM     24  N   UNL     1      53.891 152.042  24.493  0.00  0.00    -0.189 NA
ATOM     25  N   UNL     1      54.267 150.860  23.867  0.00  0.00    -0.258 N 
ATOM     26  C   UNL     1      54.274 149.664  24.687  0.00  0.00    +0.107 C 
ATOM     27  C   UNL     1      53.053 149.589  25.540  0.00  0.00    +0.029 C 
ATOM     28  C   UNL     1      52.591 150.871  26.128  0.00  0.00    +0.050 C 
ATOM     29  H   UNL     1      54.516 150.836  22.915  0.00  0.00    +0.169 HD
ENDBRANCH  20  23
ENDBRANCH   2  20
TORSDOF 4
