MODEL 1
REMARK VINA RESULT:    -5.702      0.000      0.000
REMARK INTER + INTRA:         -11.320
REMARK INTER:                  -9.702
REMARK INTRA:                  -1.618
REMARK UNBOUND:                -1.618
REMARK  Name = =
REMARK  14 active torsions:
REMARK  status: ('A' for Active; 'I' for Inactive)
REMARK    1  A    between atoms: P_1  and  O_3
REMARK    2  A    between atoms: P_1  and  O_16
REMARK    3  A    between atoms: P_1  and  O_21
REMARK    4  A    between atoms: O_3  and  S_4
REMARK    5  A    between atoms: S_4  and  C_11
REMARK    6  A    between atoms: S_4  and  S_15
REMARK    7  A    between atoms: O_16  and  P_17
REMARK    8  A    between atoms: P_17  and  O_19
REMARK    9  A    between atoms: P_17  and  O_20
REMARK   10  A    between atoms: O_21  and  C_22
REMARK   11  A    between atoms: C_22  and  N_24
REMARK   12  A    between atoms: N_24  and  S_26
REMARK   13  A    between atoms: S_26  and  C_27
REMARK   14  A    between atoms: C_27  and  N_29
REMARK                            x       y       z     vdW  Elec       q    Type
REMARK                         _______ _______ _______ _____ _____    ______ ____
ROOT
ATOM      1  P   UNL     1      59.653 160.227  39.455  0.00  0.00    +0.554 P 
ATOM      2  O   UNL     1      59.877 158.740  39.308  0.00  0.00    -0.214 OA
ENDROOT
BRANCH   1   3
ATOM      3  O   UNL     1      57.991 160.464  39.648  0.00  0.00    -0.216 OA
BRANCH   3   4
ATOM      4  S   UNL     1      57.664 160.860  41.169  0.00  0.00    -0.059 S 
ATOM      5  H   UNL     1      58.474 161.867  41.593  0.00  0.00    +0.126 HD
BRANCH   4  12
ATOM      6  C   UNL     1      54.282 162.845  41.843  0.00  0.00    -0.026 C 
ATOM      7  C   UNL     1      55.626 162.539  41.608  0.00  0.00    -0.019 C 
ATOM      8  C   UNL     1      56.647 163.632  41.520  0.00  0.00    +0.027 C 
ATOM      9  C   UNL     1      56.098 164.936  41.070  0.00  0.00    +0.005 C 
ATOM     10  C   UNL     1      54.627 164.965  40.796  0.00  0.00    +0.005 C 
ATOM     11  C   UNL     1      53.936 164.300  41.993  0.00  0.00    +0.026 C 
ATOM     12  C   UNL     1      56.038 161.242  41.454  0.00  0.00    +0.033 C 
ATOM     13  C   UNL     1      55.094 160.212  41.533  0.00  0.00    +0.007 C 
ATOM     14  C   UNL     1      53.771 160.516  41.765  0.00  0.00    +0.000 C 
ATOM     15  C   UNL     1      53.355 161.836  41.922  0.00  0.00    -0.005 C 
ENDBRANCH   4  12
BRANCH   4  16
ATOM     16  S   UNL     1      57.657 159.202  41.850  0.00  0.00    -0.103 S 
ATOM     17  H   UNL     1      57.445 158.303  40.852  0.00  0.00    +0.115 HD
ENDBRANCH   4  16
ENDBRANCH   3   4
ENDBRANCH   1   3
BRANCH   1  18
ATOM     18  O   UNL     1      60.399 160.796  40.873  0.00  0.00    -0.176 OA
BRANCH  18  19
ATOM     19  P   UNL     1      61.726 159.875  41.290  0.00  0.00    +0.482 P 
ATOM     20  O   UNL     1      62.559 160.498  42.393  0.00  0.00    -0.227 OA
BRANCH  19  21
ATOM     21  O   UNL     1      61.176 158.343  41.821  0.00  0.00    -0.302 OA
ATOM     22  H   UNL     1      61.900 157.700  41.760  0.00  0.00    +0.222 HD
ENDBRANCH  19  21
BRANCH  19  23
ATOM     23  O   UNL     1      62.755 159.587  39.985  0.00  0.00    -0.302 OA
ATOM     24  H   UNL     1      63.568 159.163  40.302  0.00  0.00    +0.222 HD
ENDBRANCH  19  23
ENDBRANCH  18  19
ENDBRANCH   1  18
BRANCH   1  25
ATOM     25  O   UNL     1      60.239 161.058  38.080  0.00  0.00    -0.381 OA
BRANCH  25  26
ATOM     26  C   UNL     1      60.568 162.402  38.172  0.00  0.00    +0.251 C 
ATOM     27  S   UNL     1      62.117 162.794  38.502  0.00  0.00    +0.007 S 
BRANCH  26  28
ATOM     28  N   UNL     1      59.637 163.460  37.999  0.00  0.00    -0.221 N 
ATOM     29  C   UNL     1      59.450 164.210  39.218  0.00  0.00    +0.129 C 
BRANCH  28  30
ATOM     30  S   UNL     1      60.072 164.502  36.651  0.00  0.00    +0.005 S 
BRANCH  30  31
ATOM     31  C   UNL     1      59.089 164.071  35.249  0.00  0.00    +0.123 C 
ATOM     32  S   UNL     1      58.639 162.525  35.021  0.00  0.00    -0.027 S 
BRANCH  31  33
ATOM     33  N   UNL     1      58.662 165.034  34.282  0.00  0.00    -0.346 N 
ATOM     34  H   UNL     1      58.796 164.860  33.323  0.00  0.00    +0.143 HD
ATOM     35  H   UNL     1      58.234 165.869  34.576  0.00  0.00    +0.143 HD
ENDBRANCH  31  33
ENDBRANCH  30  31
ENDBRANCH  28  30
ENDBRANCH  26  28
ENDBRANCH  25  26
ENDBRANCH   1  25
TORSDOF 14
ENDMDL
