REMARK  Name = =
REMARK  0 active torsions:
REMARK  status: ('A' for Active; 'I' for Inactive)
REMARK                            x       y       z     vdW  Elec       q    Type
REMARK                         _______ _______ _______ _____ _____    ______ ____
ROOT
ATOM      1  C   UNL     1     -15.100 -41.617  33.406  0.00  0.00    +0.033 C 
ATOM      2  C   UNL     1     -14.307 -42.888  33.550  0.00  0.00    +0.059 C 
ATOM      3  N   UNL     1     -13.122 -42.005  33.438  0.00  0.00    -0.274 NA
ATOM      4  C   UNL     1     -12.207 -42.776  32.696  0.00  0.00    +0.072 C 
ATOM      5  C   UNL     1     -12.765 -43.786  32.054  0.00  0.00    +0.019 C 
ATOM      6  C   UNL     1     -14.205 -43.775  32.332  0.00  0.00    +0.017 C 
ATOM      7  C   UNL     1     -13.904 -41.059  34.203  0.00  0.00    +0.073 C 
ENDROOT
TORSDOF 0
