MODEL 1
REMARK VINA RESULT:   -10.158      0.000      0.000
REMARK INTER + INTRA:         -16.150
REMARK INTER:                 -14.611
REMARK INTRA:                  -1.539
REMARK UNBOUND:                -1.539
REMARK  Name = =
REMARK  8 active torsions:
REMARK  status: ('A' for Active; 'I' for Inactive)
REMARK    1  A    between atoms: C_13  and  N_17
REMARK    2  A    between atoms: C_13  and  N_26
REMARK    3  A    between atoms: C_20  and  S_24
REMARK    4  A    between atoms: N_26  and  C_27
REMARK    5  A    between atoms: C_30  and  C_42
REMARK    6  A    between atoms: C_32  and  S_33
REMARK    7  A    between atoms: S_33  and  C_36
REMARK    8  A    between atoms: C_42  and  O_44
REMARK                            x       y       z     vdW  Elec       q    Type
REMARK                         _______ _______ _______ _____ _____    ______ ____
ROOT
ATOM      1  C   UNL     1      -2.436  -2.151  30.006  0.00  0.00    +0.133 C 
ATOM      2  N   UNL     1      -3.568  -1.418  30.230  0.00  0.00    -0.212 NA
ATOM      3  C   UNL     1      -4.520  -1.773  31.091  0.00  0.00    +0.164 C 
ATOM      4  C   UNL     1      -4.435  -2.926  31.836  0.00  0.00    +0.036 C 
ATOM      5  C   UNL     1      -3.316  -3.700  31.651  0.00  0.00    +0.006 C 
ATOM      6  C   UNL     1      -2.332  -3.303  30.739  0.00  0.00    +0.034 C 
ATOM      7  C   UNL     1      -5.408  -3.315  32.737  0.00  0.00    +0.005 C 
ATOM      8  C   UNL     1      -6.511  -2.510  32.892  0.00  0.00    +0.021 C 
ATOM      9  C   UNL     1      -6.579  -1.352  32.132  0.00  0.00    +0.101 C 
ATOM     10  N   UNL     1      -5.622  -0.993  31.262  0.00  0.00    -0.225 NA
ATOM     11  N   UNL     1      -1.550  -1.639  29.072  0.00  0.00    -0.290 N 
ATOM     12  C   UNL     1      -0.318  -2.303  28.864  0.00  0.00    +0.130 C 
ATOM     13  C   UNL     1      -0.285  -3.265  27.707  0.00  0.00    +0.142 C 
ATOM     14  C   UNL     1      -1.588  -3.314  26.942  0.00  0.00    +0.041 C 
ATOM     15  C   UNL     1      -2.263  -2.005  26.757  0.00  0.00    +0.025 C 
ATOM     16  C   UNL     1      -2.152  -1.062  27.910  0.00  0.00    +0.092 C 
ENDROOT
BRANCH  13  17
ATOM     17  N   UNL     1       0.752  -3.036  26.752  0.00  0.00    -0.215 N 
ATOM     18  C   UNL     1       1.174  -1.827  26.132  0.00  0.00    +0.242 C 
ATOM     19  O   UNL     1       0.816  -0.697  26.463  0.00  0.00    -0.274 OA
ATOM     20  C   UNL     1       2.115  -2.128  25.022  0.00  0.00    +0.122 C 
ATOM     21  C   UNL     1       2.753  -3.407  25.555  0.00  0.00    +0.105 C 
ATOM     22  C   UNL     1       1.569  -4.052  26.183  0.00  0.00    +0.234 C 
ATOM     23  O   UNL     1       1.402  -5.310  26.161  0.00  0.00    -0.274 OA
BRANCH  20  24
ATOM     24  S   UNL     1       3.380  -0.882  24.854  0.00  0.00    -0.195 S 
ATOM     25  C   UNL     1       3.094   0.021  23.554  0.00  0.00    +0.055 C 
ATOM     26  H   UNL     1       4.593  -1.485  24.725  0.00  0.00    +0.093 HD
ENDBRANCH  20  24
ENDBRANCH  13  17
BRANCH  13  27
ATOM     27  N   UNL     1      -0.095  -4.609  28.286  0.00  0.00    -0.319 N 
ATOM     28  H   UNL     1      -0.494  -5.375  27.814  0.00  0.00    +0.148 HD
BRANCH  27  29
ATOM     29  C   UNL     1       0.626  -4.867  29.477  0.00  0.00    +0.063 C 
ATOM     30  C   UNL     1       1.680  -4.132  29.937  0.00  0.00    +0.016 C 
ATOM     31  C   UNL     1       2.309  -4.476  31.118  0.00  0.00    +0.008 C 
ATOM     32  C   UNL     1       1.915  -5.552  31.872  0.00  0.00    +0.077 C 
ATOM     33  C   UNL     1       0.853  -6.282  31.393  0.00  0.00    +0.026 C 
ATOM     34  C   UNL     1       0.208  -5.962  30.221  0.00  0.00    +0.124 C 
BRANCH  34  35
ATOM     35  S   UNL     1      -1.153  -6.954  29.662  0.00  0.00    +0.029 S 
ATOM     36  O   UNL     1      -2.068  -6.157  28.777  0.00  0.00    -0.164 OA
ATOM     37  O   UNL     1      -0.585  -8.153  28.955  0.00  0.00    -0.164 OA
BRANCH  35  38
ATOM     38  C   UNL     1      -2.061  -7.422  31.076  0.00  0.00    +0.110 C 
ATOM     39  C   UNL     1      -1.489  -8.226  32.035  0.00  0.00    +0.019 C 
ATOM     40  C   UNL     1      -2.231  -8.579  33.145  0.00  0.00    +0.001 C 
ATOM     41  C   UNL     1      -3.545  -8.134  33.305  0.00  0.00    +0.000 C 
ATOM     42  C   UNL     1      -4.087  -7.329  32.324  0.00  0.00    +0.001 C 
ATOM     43  C   UNL     1      -3.354  -6.965  31.201  0.00  0.00    +0.019 C 
ENDBRANCH  35  38
ENDBRANCH  34  35
BRANCH  32  44
ATOM     44  C   UNL     1       2.541  -5.957  33.117  0.00  0.00    +0.338 C 
ATOM     45  O   UNL     1       1.924  -6.659  33.954  0.00  0.00    -0.245 OA
BRANCH  44  46
ATOM     46  O   UNL     1       3.834  -5.568  33.399  0.00  0.00    -0.477 OA
ATOM     47  H   UNL     1       4.031  -5.154  34.216  0.00  0.00    +0.295 HD
ENDBRANCH  44  46
ENDBRANCH  32  44
ENDBRANCH  27  29
ENDBRANCH  13  27
TORSDOF 8
ENDMDL
