REMARK  Name = =
REMARK  8 active torsions:
REMARK  status: ('A' for Active; 'I' for Inactive)
REMARK    1  A    between atoms: C_13  and  N_17
REMARK    2  A    between atoms: C_13  and  N_26
REMARK    3  A    between atoms: C_20  and  S_24
REMARK    4  A    between atoms: N_26  and  C_27
REMARK    5  A    between atoms: C_30  and  C_42
REMARK    6  A    between atoms: C_32  and  S_33
REMARK    7  A    between atoms: S_33  and  C_36
REMARK    8  A    between atoms: C_42  and  O_44
REMARK                            x       y       z     vdW  Elec       q    Type
REMARK                         _______ _______ _______ _____ _____    ______ ____
ROOT
ATOM      1  C   UNL     1       1.665  -5.054  26.780  0.00  0.00    +0.133 C 
ATOM      2  N   UNL     1       0.865  -5.076  27.888  0.00  0.00    -0.212 NA
ATOM      3  C   UNL     1      -0.083  -4.174  28.133  0.00  0.00    +0.164 C 
ATOM      4  C   UNL     1      -0.336  -3.131  27.272  0.00  0.00    +0.036 C 
ATOM      5  C   UNL     1       0.439  -3.062  26.141  0.00  0.00    +0.006 C 
ATOM      6  C   UNL     1       1.429  -4.024  25.910  0.00  0.00    +0.034 C 
ATOM      7  C   UNL     1      -1.314  -2.183  27.502  0.00  0.00    +0.005 C 
ATOM      8  C   UNL     1      -2.068  -2.290  28.646  0.00  0.00    +0.021 C 
ATOM      9  C   UNL     1      -1.799  -3.348  29.502  0.00  0.00    +0.101 C 
ATOM     10  N   UNL     1      -0.843  -4.258  29.259  0.00  0.00    -0.225 NA
ATOM     11  N   UNL     1       2.605  -6.068  26.684  0.00  0.00    -0.290 N 
ATOM     12  C   UNL     1       3.400  -6.153  25.517  0.00  0.00    +0.130 C 
ATOM     13  C   UNL     1       4.758  -5.511  25.606  0.00  0.00    +0.142 C 
ATOM     14  C   UNL     1       5.043  -4.917  26.967  0.00  0.00    +0.041 C 
ATOM     15  C   UNL     1       4.559  -5.717  28.120  0.00  0.00    +0.025 C 
ATOM     16  C   UNL     1       3.256  -6.416  27.909  0.00  0.00    +0.092 C 
ENDROOT
BRANCH  13  17
ATOM     17  N   UNL     1       5.859  -6.362  25.283  0.00  0.00    -0.215 N 
ATOM     18  C   UNL     1       6.017  -7.763  25.471  0.00  0.00    +0.242 C 
ATOM     19  O   UNL     1       5.121  -8.542  25.797  0.00  0.00    -0.274 OA
ATOM     20  C   UNL     1       7.428  -8.153  25.215  0.00  0.00    +0.122 C 
ATOM     21  C   UNL     1       7.809  -7.102  24.177  0.00  0.00    +0.105 C 
ATOM     22  C   UNL     1       7.088  -5.920  24.720  0.00  0.00    +0.234 C 
ATOM     23  O   UNL     1       7.572  -4.749  24.647  0.00  0.00    -0.274 OA
BRANCH  20  24
ATOM     24  S   UNL     1       7.557  -9.769  24.471  0.00  0.00    -0.195 S 
ATOM     25  C   UNL     1       9.039  -9.988  23.885  0.00  0.00    +0.055 C 
ATOM     26  H   UNL     1       6.653  -9.873  23.460  0.00  0.00    +0.093 HD
ENDBRANCH  20  24
ENDBRANCH  13  17
BRANCH  13  27
ATOM     27  N   UNL     1       4.750  -4.382  24.656  0.00  0.00    -0.319 N 
ATOM     28  H   UNL     1       5.157  -3.533  24.945  0.00  0.00    +0.148 HD
BRANCH  27  29
ATOM     29  C   UNL     1       4.195  -4.441  23.355  0.00  0.00    +0.063 C 
ATOM     30  C   UNL     1       3.998  -5.582  22.632  0.00  0.00    +0.016 C 
ATOM     31  C   UNL     1       3.444  -5.520  21.368  0.00  0.00    +0.008 C 
ATOM     32  C   UNL     1       3.072  -4.335  20.787  0.00  0.00    +0.077 C 
ATOM     33  C   UNL     1       3.279  -3.196  21.529  0.00  0.00    +0.026 C 
ATOM     34  C   UNL     1       3.828  -3.227  22.790  0.00  0.00    +0.124 C 
BRANCH  34  35
ATOM     35  S   UNL     1       4.070  -1.715  23.686  0.00  0.00    +0.029 S 
ATOM     36  O   UNL     1       3.546  -1.835  25.089  0.00  0.00    -0.164 OA
ATOM     37  O   UNL     1       5.538  -1.395  23.656  0.00  0.00    -0.164 OA
BRANCH  35  38
ATOM     38  C   UNL     1       3.135  -0.484  22.877  0.00  0.00    +0.110 C 
ATOM     39  C   UNL     1       3.746   0.401  22.019  0.00  0.00    +0.019 C 
ATOM     40  C   UNL     1       2.981   1.364  21.391  0.00  0.00    +0.001 C 
ATOM     41  C   UNL     1       1.605   1.450  21.614  0.00  0.00    +0.000 C 
ATOM     42  C   UNL     1       1.025   0.546  22.480  0.00  0.00    +0.001 C 
ATOM     43  C   UNL     1       1.781  -0.429  23.120  0.00  0.00    +0.019 C 
ENDBRANCH  35  38
ENDBRANCH  34  35
BRANCH  32  44
ATOM     44  C   UNL     1       2.487  -4.215  19.464  0.00  0.00    +0.338 C 
ATOM     45  O   UNL     1       2.168  -3.096  18.996  0.00  0.00    -0.245 OA
BRANCH  44  46
ATOM     46  O   UNL     1       2.272  -5.342  18.699  0.00  0.00    -0.477 OA
ATOM     47  H   UNL     1       2.504  -6.186  19.033  0.00  0.00    +0.295 HD
ENDBRANCH  44  46
ENDBRANCH  32  44
ENDBRANCH  27  29
ENDBRANCH  13  27
TORSDOF 8
