MODEL 1
REMARK VINA RESULT:   -11.737      0.000      0.000
REMARK INTER + INTRA:         -15.168
REMARK INTER:                 -15.168
REMARK INTRA:                  -0.000
REMARK UNBOUND:                -0.000
REMARK  Name = =
REMARK  5 active torsions:
REMARK  status: ('A' for Active; 'I' for Inactive)
REMARK    1  A    between atoms: C_1  and  C_14
REMARK    2  A    between atoms: C_3  and  C_28
REMARK    3  A    between atoms: N_13  and  C_18
REMARK    4  A    between atoms: C_15  and  C_20
REMARK    5  A    between atoms: C_30  and  N_33
REMARK                            x       y       z     vdW  Elec       q    Type
REMARK                         _______ _______ _______ _____ _____    ______ ____
ROOT
ATOM      1  C   UNL     1      -3.121  -5.992  31.397  0.00  0.00    -0.006 C 
ATOM      2  C   UNL     1      -2.917  -5.049  30.366  0.00  0.00    -0.004 C 
ATOM      3  C   UNL     1      -3.486  -3.813  30.482  0.00  0.00    +0.014 C 
ATOM      4  C   UNL     1      -4.258  -3.472  31.561  0.00  0.00    +0.132 C 
ATOM      5  C   UNL     1      -4.451  -4.400  32.586  0.00  0.00    +0.064 C 
ATOM      6  C   UNL     1      -3.861  -5.663  32.493  0.00  0.00    +0.013 C 
ATOM      7  N   UNL     1      -5.072  -4.008  33.805  0.00  0.00    -0.317 N 
ATOM      8  C   UNL     1      -6.011  -2.957  33.901  0.00  0.00    +0.182 C 
ATOM      9  N   UNL     1      -5.666  -1.721  33.229  0.00  0.00    -0.160 NA
ATOM     10  S   UNL     1      -5.272  -2.081  31.567  0.00  0.00    +0.063 S 
ATOM     11  O   UNL     1      -6.638  -2.441  30.910  0.00  0.00    -0.153 OA
ATOM     12  O   UNL     1      -4.805  -0.873  30.911  0.00  0.00    -0.153 OA
ATOM     13  H   UNL     1      -4.834  -4.496  34.625  0.00  0.00    +0.148 HD
ATOM     14  H   UNL     1      -4.861  -1.294  33.688  0.00  0.00    +0.151 HD
ENDROOT
BRANCH   3  15
ATOM     15  C   UNL     1      -3.221  -2.712  29.506  0.00  0.00    +0.111 C 
ATOM     16  N   UNL     1      -2.661  -3.315  28.268  0.00  0.00    -0.253 NA
ATOM     17  C   UNL     1      -1.968  -2.108  27.760  0.00  0.00    +0.268 C 
ATOM     18  O   UNL     1      -1.686  -1.284  28.811  0.00  0.00    -0.323 OA
ATOM     19  C   UNL     1      -1.848  -2.084  29.903  0.00  0.00    +0.166 C 
ATOM     20  H   UNL     1      -3.388  -3.642  27.632  0.00  0.00    +0.127 HD
BRANCH  17  21
ATOM     21  N   UNL     1      -0.808  -2.306  26.977  0.00  0.00    -0.170 N 
ATOM     22  C   UNL     1       0.205  -3.256  27.334  0.00  0.00    +0.310 C 
ATOM     23  O   UNL     1       0.062  -3.941  28.383  0.00  0.00    -0.252 OA
ATOM     24  N   UNL     1       1.404  -3.496  26.584  0.00  0.00    -0.313 N 
ATOM     25  C   UNL     1      -0.555  -1.597  25.736  0.00  0.00    +0.313 C 
ATOM     26  O   UNL     1       0.265  -2.068  24.958  0.00  0.00    -0.264 OA
ATOM     27  H   UNL     1       1.575  -2.994  25.755  0.00  0.00    +0.146 HD
ATOM     28  H   UNL     1       2.056  -4.164  26.898  0.00  0.00    +0.146 HD
ENDBRANCH  17  21
ENDBRANCH   3  15
BRANCH   1  30
ATOM     29  N   UNL     1      -1.753  -7.588  30.078  0.00  0.00    -0.242 NA
ATOM     30  C   UNL     1      -2.606  -7.337  31.135  0.00  0.00    +0.091 C 
ATOM     31  C   UNL     1      -1.668  -7.840  32.295  0.00  0.00    +0.097 C 
ATOM     32  C   UNL     1      -1.493  -9.278  31.758  0.00  0.00    +0.028 C 
ATOM     33  C   UNL     1      -1.597  -9.063  30.252  0.00  0.00    +0.075 C 
BRANCH  31  34
ATOM     34  C   UNL     1      -0.375  -7.168  32.160  0.00  0.00    +0.230 C 
ATOM     35  O   UNL     1       0.362  -6.735  31.468  0.00  0.00    -0.275 OA
ATOM     36  N   UNL     1       0.234  -7.018  33.859  0.00  0.00    -0.239 N 
ATOM     37  C   UNL     1       1.600  -6.410  33.432  0.00  0.00    +0.313 C 
ATOM     38  O   UNL     1       2.037  -6.683  32.587  0.00  0.00    -0.252 OA
ATOM     39  N   UNL     1       1.632  -5.569  34.681  0.00  0.00    -0.232 N 
ATOM     40  C   UNL     1       2.771  -4.406  34.001  0.00  0.00    +0.307 C 
ATOM     41  O   UNL     1       3.040  -4.471  32.934  0.00  0.00    -0.265 OA
ATOM     42  H   UNL     1      -0.157  -7.242  34.734  0.00  0.00    +0.159 HD
ATOM     43  H   UNL     1       1.183  -5.642  35.554  0.00  0.00    +0.160 HD
ENDBRANCH  31  34
BRANCH  29  44
ATOM     44  C   UNL     1      -0.959  -6.899  29.137  0.00  0.00    +0.259 C 
ATOM     45  O   UNL     1      -1.018  -7.154  27.864  0.00  0.00    -0.201 OA
ENDBRANCH  29  44
ENDBRANCH   1  30
TORSDOF 5
ENDMDL
