REMARK  Name = =
REMARK  5 active torsions:
REMARK  status: ('A' for Active; 'I' for Inactive)
REMARK    1  A    between atoms: C_1  and  C_14
REMARK    2  A    between atoms: C_3  and  C_28
REMARK    3  A    between atoms: N_13  and  C_18
REMARK    4  A    between atoms: C_15  and  C_20
REMARK    5  A    between atoms: C_30  and  N_33
REMARK                            x       y       z     vdW  Elec       q    Type
REMARK                         _______ _______ _______ _____ _____    ______ ____
ROOT
ATOM      1  C   UNL     1     -15.241 -10.563  20.967  0.00  0.00    -0.006 C 
ATOM      2  C   UNL     1     -14.794 -11.791  21.503  0.00  0.00    -0.004 C 
ATOM      3  C   UNL     1     -15.611 -12.472  22.359  0.00  0.00    +0.014 C 
ATOM      4  C   UNL     1     -16.842 -11.990  22.721  0.00  0.00    +0.132 C 
ATOM      5  C   UNL     1     -17.289 -10.782  22.183  0.00  0.00    +0.064 C 
ATOM      6  C   UNL     1     -16.474 -10.080  21.291  0.00  0.00    +0.013 C 
ATOM      7  N   UNL     1     -18.634 -10.361  22.377  0.00  0.00    -0.317 N 
ATOM      8  C   UNL     1     -19.414 -10.726  23.498  0.00  0.00    +0.182 C 
ATOM      9  N   UNL     1     -19.389 -12.126  23.871  0.00  0.00    -0.160 NA
ATOM     10  S   UNL     1     -17.726 -12.625  24.054  0.00  0.00    +0.063 S 
ATOM     11  O   UNL     1     -17.249 -11.928  25.363  0.00  0.00    -0.153 OA
ATOM     12  O   UNL     1     -17.679 -14.054  24.307  0.00  0.00    -0.153 OA
ATOM     13  H   UNL     1     -19.044  -9.784  21.693  0.00  0.00    +0.148 HD
ATOM     14  H   UNL     1     -19.837 -12.683  23.144  0.00  0.00    +0.151 HD
ENDROOT
BRANCH   3  15
ATOM     15  C   UNL     1     -15.278 -13.835  22.874  0.00  0.00    +0.111 C 
ATOM     16  N   UNL     1     -13.836 -13.854  23.235  0.00  0.00    -0.253 NA
ATOM     17  C   UNL     1     -13.627 -15.317  23.128  0.00  0.00    +0.268 C 
ATOM     18  O   UNL     1     -14.557 -15.835  22.274  0.00  0.00    -0.323 OA
ATOM     19  C   UNL     1     -15.046 -14.741  21.624  0.00  0.00    +0.166 C 
ATOM     20  H   UNL     1     -13.668 -13.506  24.179  0.00  0.00    +0.127 HD
BRANCH  17  21
ATOM     21  N   UNL     1     -12.336 -15.764  22.765  0.00  0.00    -0.170 N 
ATOM     22  C   UNL     1     -11.349 -16.129  23.740  0.00  0.00    +0.310 C 
ATOM     23  O   UNL     1     -11.636 -16.049  24.965  0.00  0.00    -0.252 OA
ATOM     24  N   UNL     1     -10.023 -16.583  23.432  0.00  0.00    -0.313 N 
ATOM     25  C   UNL     1     -11.908 -15.924  21.388  0.00  0.00    +0.313 C 
ATOM     26  O   UNL     1     -10.936 -16.635  21.164  0.00  0.00    -0.264 OA
ATOM     27  H   UNL     1      -9.737 -16.667  22.494  0.00  0.00    +0.146 HD
ATOM     28  H   UNL     1      -9.399 -16.810  24.159  0.00  0.00    +0.146 HD
ENDBRANCH  17  21
ENDBRANCH   3  15
BRANCH   1  30
ATOM     29  N   UNL     1     -14.641  -8.824  19.302  0.00  0.00    -0.242 NA
ATOM     30  C   UNL     1     -14.257  -9.821  20.178  0.00  0.00    +0.091 C 
ATOM     31  C   UNL     1     -13.310  -8.955  21.090  0.00  0.00    +0.097 C 
ATOM     32  C   UNL     1     -12.359  -8.500  19.960  0.00  0.00    +0.028 C 
ATOM     33  C   UNL     1     -13.298  -8.463  18.759  0.00  0.00    +0.075 C 
BRANCH  31  34
ATOM     34  C   UNL     1     -14.054  -7.774  21.530  0.00  0.00    +0.230 C 
ATOM     35  O   UNL     1     -14.620  -6.883  21.221  0.00  0.00    -0.275 OA
ATOM     36  N   UNL     1     -13.973  -7.839  23.338  0.00  0.00    -0.239 N 
ATOM     37  C   UNL     1     -14.702  -6.479  23.528  0.00  0.00    +0.313 C 
ATOM     38  O   UNL     1     -14.581  -5.741  22.880  0.00  0.00    -0.252 OA
ATOM     39  N   UNL     1     -15.345  -6.984  24.793  0.00  0.00    -0.232 N 
ATOM     40  C   UNL     1     -16.649  -5.798  24.735  0.00  0.00    +0.307 C 
ATOM     41  O   UNL     1     -16.759  -5.156  23.845  0.00  0.00    -0.265 OA
ATOM     42  H   UNL     1     -13.602  -8.496  23.970  0.00  0.00    +0.159 HD
ATOM     43  H   UNL     1     -15.120  -7.709  25.420  0.00  0.00    +0.160 HD
ENDBRANCH  31  34
BRANCH  29  44
ATOM     44  C   UNL     1     -15.770  -8.044  18.974  0.00  0.00    +0.259 C 
ATOM     45  O   UNL     1     -15.743  -7.152  18.028  0.00  0.00    -0.201 OA
ENDBRANCH  29  44
ENDBRANCH   1  30
TORSDOF 5
