REMARK  Name = =
REMARK  0 active torsions:
REMARK  status: ('A' for Active; 'I' for Inactive)
REMARK                            x       y       z     vdW  Elec       q    Type
REMARK                         _______ _______ _______ _____ _____    ______ ____
ROOT
ATOM      1  C   UNL     1      52.447 156.430  28.963  0.00  0.00    +0.143 C 
ATOM      2  O   UNL     1      52.063 157.688  28.501  0.00  0.00    -0.346 OA
ATOM      3  C   UNL     1      51.725 158.488  29.589  0.00  0.00    +0.206 C 
ATOM      4  C   UNL     1      50.382 157.984  30.058  0.00  0.00    +0.180 C 
ATOM      5  O   UNL     1      49.567 158.678  30.597  0.00  0.00    -0.293 OA
ATOM      6  C   UNL     1      50.088 156.558  29.824  0.00  0.00    +0.070 C 
ATOM      7  C   UNL     1      51.296 155.713  29.591  0.00  0.00    +0.040 C 
ENDROOT
TORSDOF 0
