REMARK  Name = =
REMARK  2 active torsions:
REMARK  status: ('A' for Active; 'I' for Inactive)
REMARK    1  A    between atoms: C_1  and  S_14
REMARK    2  A    between atoms: C_6  and  C_7
REMARK                            x       y       z     vdW  Elec       q    Type
REMARK                         _______ _______ _______ _____ _____    ______ ____
ROOT
ATOM      1  C   UNL     1      53.168 156.320  27.354  0.00  0.00    +0.100 C 
ATOM      2  C   UNL     1      53.862 155.962  26.213  0.00  0.00    +0.018 C 
ATOM      3  C   UNL     1      53.540 154.889  25.423  0.00  0.00    +0.001 C 
ATOM      4  C   UNL     1      52.448 154.096  25.782  0.00  0.00    -0.000 C 
ATOM      5  C   UNL     1      51.739 154.421  26.912  0.00  0.00    -0.001 C 
ATOM      6  C   UNL     1      52.107 155.554  27.708  0.00  0.00    +0.021 C 
ENDROOT
BRANCH   6   7
ATOM      7  C   UNL     1      51.187 155.951  28.749  0.00  0.00    +0.140 C 
ATOM      8  O   UNL     1      51.662 156.583  29.869  0.00  0.00    -0.344 OA
ATOM      9  C   UNL     1      50.956 157.787  30.086  0.00  0.00    +0.206 C 
ATOM     10  C   UNL     1      49.543 157.378  30.307  0.00  0.00    +0.180 C 
ATOM     11  O   UNL     1      48.808 158.097  30.942  0.00  0.00    -0.293 OA
ATOM     12  C   UNL     1      48.977 156.118  29.781  0.00  0.00    +0.070 C 
ATOM     13  C   UNL     1      49.817 155.374  28.788  0.00  0.00    +0.042 C 
ENDBRANCH   6   7
BRANCH   1  14
ATOM     14  S   UNL     1      53.807 157.589  28.285  0.00  0.00    -0.012 S 
ATOM     15  O   UNL     1      52.996 158.525  29.027  0.00  0.00    -0.172 OA
ATOM     16  O   UNL     1      54.677 158.497  27.375  0.00  0.00    -0.172 OA
ATOM     17  H   UNL     1      54.394 156.832  29.250  0.00  0.00    +0.215 HD
ENDBRANCH   1  14
TORSDOF 2
