REMARK  Name = =
REMARK  5 active torsions:
REMARK  status: ('A' for Active; 'I' for Inactive)
REMARK    1  A    between atoms: C_1  and  S_14
REMARK    2  A    between atoms: C_6  and  C_7
REMARK    3  A    between atoms: S_14  and  N_17
REMARK    4  A    between atoms: N_17  and  N_20
REMARK    5  A    between atoms: C_18  and  O_21
REMARK                            x       y       z     vdW  Elec       q    Type
REMARK                         _______ _______ _______ _____ _____    ______ ____
ROOT
ATOM      1  C   UNL     1      52.449 155.164  27.723  0.00  0.00    +0.122 C 
ATOM      2  C   UNL     1      52.401 153.775  27.717  0.00  0.00    +0.020 C 
ATOM      3  C   UNL     1      52.015 153.039  28.801  0.00  0.00    +0.001 C 
ATOM      4  C   UNL     1      51.656 153.674  29.944  0.00  0.00    -0.000 C 
ATOM      5  C   UNL     1      51.693 155.049  29.972  0.00  0.00    -0.001 C 
ATOM      6  C   UNL     1      52.086 155.828  28.882  0.00  0.00    +0.023 C 
ENDROOT
BRANCH   6   7
ATOM      7  C   UNL     1      51.982 157.261  28.895  0.00  0.00    +0.140 C 
ATOM      8  O   UNL     1      51.213 157.981  28.068  0.00  0.00    -0.344 OA
ATOM      9  C   UNL     1      50.669 159.089  28.770  0.00  0.00    +0.206 C 
ATOM     10  C   UNL     1      51.576 159.613  29.815  0.00  0.00    +0.180 C 
ATOM     11  O   UNL     1      51.177 160.588  30.484  0.00  0.00    -0.293 OA
ATOM     12  C   UNL     1      52.927 159.149  30.196  0.00  0.00    +0.070 C 
ATOM     13  C   UNL     1      53.251 158.001  29.272  0.00  0.00    +0.042 C 
ENDBRANCH   6   7
BRANCH   1  14
ATOM     14  S   UNL     1      53.056 156.101  26.379  0.00  0.00    +0.075 S 
ATOM     15  O   UNL     1      52.118 156.359  25.290  0.00  0.00    -0.152 OA
ATOM     16  O   UNL     1      53.797 157.323  26.895  0.00  0.00    -0.152 OA
BRANCH  14  17
ATOM     17  N   UNL     1      54.313 155.112  25.645  0.00  0.00    -0.105 NA
ATOM     18  H   UNL     1      54.737 154.515  26.356  0.00  0.00    +0.172 HD
BRANCH  17  21
ATOM     19  C   UNL     1      54.399 153.602  23.677  0.00  0.00    +0.413 C 
ATOM     20  O   UNL     1      55.748 153.735  23.700  0.00  0.00    -0.225 OA
ATOM     21  N   UNL     1      53.744 154.316  24.643  0.00  0.00    -0.197 N 
ATOM     22  H   UNL     1      52.761 154.264  24.633  0.00  0.00    +0.174 HD
BRANCH  19  23
ATOM     23  O   UNL     1      54.019 152.782  22.684  0.00  0.00    -0.465 OA
ATOM     24  H   UNL     1      53.110 152.598  22.550  0.00  0.00    +0.297 HD
ENDBRANCH  19  23
ENDBRANCH  17  21
ENDBRANCH  14  17
ENDBRANCH   1  14
TORSDOF 5
