MODEL 1
REMARK VINA RESULT:    -6.916      0.000      0.000
REMARK INTER + INTRA:         -13.118
REMARK INTER:                  -9.140
REMARK INTRA:                  -3.978
REMARK UNBOUND:                -3.978
REMARK  Name = =
REMARK  6 active torsions:
REMARK  status: ('A' for Active; 'I' for Inactive)
REMARK    1  A    between atoms: C_1  and  C_11
REMARK    2  A    between atoms: C_1  and  N_23
REMARK    3  A    between atoms: C_5  and  C_17
REMARK    4  A    between atoms: C_14  and  O_22
REMARK    5  A    between atoms: N_23  and  C_24
REMARK    6  A    between atoms: C_24  and  C_29
REMARK                            x       y       z     vdW  Elec       q    Type
REMARK                         _______ _______ _______ _____ _____    ______ ____
ROOT
ATOM      1  C   UNL     1      59.933 159.684  38.939  0.00  0.00    +0.107 C 
ATOM      2  C   UNL     1      59.160 158.695  38.394  0.00  0.00    +0.290 C 
ATOM      3  F   UNL     1      58.753 158.680  37.098  0.00  0.00    -0.171 F 
ATOM      4  F   UNL     1      58.758 157.668  39.142  0.00  0.00    -0.171 F 
ENDROOT
BRANCH   1  11
ATOM      5  C   UNL     1      62.051 163.936  37.688  0.00  0.00    +0.032 C 
ATOM      6  C   UNL     1      61.181 162.861  37.735  0.00  0.00    +0.133 C 
ATOM      7  C   UNL     1      61.419 161.621  38.263  0.00  0.00    +0.020 C 
ATOM      8  C   UNL     1      62.697 161.454  38.817  0.00  0.00    -0.001 C 
ATOM      9  C   UNL     1      63.616 162.480  38.802  0.00  0.00    -0.000 C 
ATOM     10  C   UNL     1      63.300 163.687  38.250  0.00  0.00    +0.000 C 
ATOM     11  C   UNL     1      60.287 160.739  37.990  0.00  0.00    +0.111 C 
ATOM     12  C   UNL     1      59.165 161.771  37.783  0.00  0.00    +0.216 C 
ATOM     13  O   UNL     1      59.886 162.873  37.234  0.00  0.00    -0.475 OA
BRANCH   5  17
ATOM     14  C   UNL     1      61.324 165.217  34.826  0.00  0.00    +0.402 C 
ATOM     15  O   UNL     1      61.650 165.582  33.692  0.00  0.00    -0.226 OA
ATOM     16  N   UNL     1      62.016 165.719  35.957  0.00  0.00    -0.239 N 
ATOM     17  C   UNL     1      61.659 165.276  37.271  0.00  0.00    +0.134 C 
ATOM     18  C   UNL     1      61.664 166.386  38.274  0.00  0.00    +0.167 C 
ATOM     19  O   UNL     1      61.674 167.602  37.604  0.00  0.00    -0.350 OA
ATOM     20  C   UNL     1      62.785 167.820  36.851  0.00  0.00    +0.164 C 
ATOM     21  C   UNL     1      63.037 166.710  35.807  0.00  0.00    +0.129 C 
BRANCH  14  22
ATOM     22  O   UNL     1      60.263 164.304  34.955  0.00  0.00    -0.466 OA
ATOM     23  H   UNL     1      60.327 163.453  34.569  0.00  0.00    +0.297 HD
ENDBRANCH  14  22
ENDBRANCH   5  17
ENDBRANCH   1  11
BRANCH   1  24
ATOM     24  N   UNL     1      60.259 159.495  40.276  0.00  0.00    -0.226 NA
BRANCH  24  25
ATOM     25  C   UNL     1      59.712 160.280  41.333  0.00  0.00    +0.177 C 
ATOM     26  C   UNL     1      58.303 160.726  41.112  0.00  0.00    +0.122 C 
ATOM     27  N   UNL     1      57.817 159.895  42.180  0.00  0.00    -0.300 N 
ATOM     28  C   UNL     1      59.094 159.349  42.339  0.00  0.00    +0.245 C 
ATOM     29  O   UNL     1      59.589 158.447  43.034  0.00  0.00    -0.273 OA
ATOM     30  H   UNL     1      56.945 159.765  42.619  0.00  0.00    +0.150 HD
BRANCH  25  31
ATOM     31  C   UNL     1      60.539 161.349  41.861  0.00  0.00    -0.009 C 
ATOM     32  C   UNL     1      61.972 161.217  42.091  0.00  0.00    -0.006 C 
ATOM     33  C   UNL     1      62.395 162.497  42.484  0.00  0.00    -0.004 C 
ATOM     34  C   UNL     1      61.344 163.452  42.072  0.00  0.00    -0.015 C 
ATOM     35  C   UNL     1      60.332 162.752  41.457  0.00  0.00    +0.064 C 
ATOM     36  C   UNL     1      59.339 163.482  40.785  0.00  0.00    -0.018 C 
ATOM     37  C   UNL     1      59.350 164.860  40.742  0.00  0.00    -0.004 C 
ATOM     38  C   UNL     1      60.369 165.544  41.376  0.00  0.00    -0.001 C 
ATOM     39  C   UNL     1      61.349 164.836  42.030  0.00  0.00    -0.004 C 
ATOM     40  C   UNL     1      63.668 162.778  42.934  0.00  0.00    -0.000 C 
ATOM     41  C   UNL     1      64.586 161.768  42.999  0.00  0.00    -0.000 C 
ATOM     42  C   UNL     1      64.238 160.496  42.618  0.00  0.00    -0.000 C 
ATOM     43  C   UNL     1      62.948 160.232  42.171  0.00  0.00    -0.001 C 
ENDBRANCH  25  31
ENDBRANCH  24  25
ENDBRANCH   1  24
TORSDOF 6
ENDMDL
