MODEL 1
REMARK VINA RESULT:    -6.070      0.000      0.000
REMARK INTER + INTRA:          -7.190
REMARK INTER:                  -6.957
REMARK INTRA:                  -0.234
REMARK UNBOUND:                -0.234
REMARK  Name = =
REMARK  3 active torsions:
REMARK  status: ('A' for Active; 'I' for Inactive)
REMARK    1  A    between atoms: C_10  and  O_20
REMARK    2  A    between atoms: O_20  and  S_21
REMARK    3  A    between atoms: S_21  and  O_23
REMARK                            x       y       z     vdW  Elec       q    Type
REMARK                         _______ _______ _______ _____ _____    ______ ____
ROOT
ATOM      1  N   UNL     1      58.429 162.954  40.426  0.00  0.00    -0.268 NA
ATOM      2  C   UNL     1      59.355 162.073  40.228  0.00  0.00    +0.124 C 
ATOM      3  C   UNL     1      58.936 160.805  40.748  0.00  0.00    +0.010 C 
ATOM      4  C   UNL     1      57.726 160.950  41.266  0.00  0.00    +0.013 C 
ATOM      5  C   UNL     1      57.309 162.343  41.096  0.00  0.00    +0.076 C 
ATOM      6  C   UNL     1      56.142 162.777  41.520  0.00  0.00    +0.019 C 
ATOM      7  C   UNL     1      55.186 161.890  42.187  0.00  0.00    +0.002 C 
ATOM      8  C   UNL     1      55.652 160.509  42.332  0.00  0.00    +0.000 C 
ATOM      9  C   UNL     1      56.795 160.023  41.932  0.00  0.00    +0.001 C 
ATOM     10  C   UNL     1      59.771 159.555  40.693  0.00  0.00    +0.182 C 
ATOM     11  C   UNL     1      60.912 159.615  41.657  0.00  0.00    +0.109 C 
ATOM     12  N   UNL     1      62.188 159.233  41.129  0.00  0.00    -0.270 NA
ATOM     13  C   UNL     1      62.744 160.268  40.230  0.00  0.00    +0.072 C 
ATOM     14  C   UNL     1      62.757 161.594  40.820  0.00  0.00    +0.016 C 
ATOM     15  C   UNL     1      61.782 162.616  40.508  0.00  0.00    +0.004 C 
ATOM     16  C   UNL     1      60.686 162.307  39.557  0.00  0.00    +0.029 C 
ATOM     17  C   UNL     1      63.372 161.599  42.166  0.00  0.00    +0.003 C 
ATOM     18  C   UNL     1      63.095 160.421  43.032  0.00  0.00    +0.017 C 
ATOM     19  C   UNL     1      63.117 159.140  42.257  0.00  0.00    +0.072 C 
ENDROOT
BRANCH  10  20
ATOM     20  O   UNL     1      60.134 159.311  39.377  0.00  0.00    -0.214 OA
BRANCH  20  21
ATOM     21  S   UNL     1      58.811 159.128  38.338  0.00  0.00    +0.141 S 
ATOM     22  O   UNL     1      58.843 157.695  37.773  0.00  0.00    -0.137 OA
BRANCH  21  23
ATOM     23  O   UNL     1      58.833 160.191  37.035  0.00  0.00    -0.245 OA
ATOM     24  H   UNL     1      59.349 160.978  37.269  0.00  0.00    +0.245 HD
ENDBRANCH  21  23
ENDBRANCH  20  21
ENDBRANCH  10  20
TORSDOF 3
ENDMDL
