REMARK  Name = =
REMARK  3 active torsions:
REMARK  status: ('A' for Active; 'I' for Inactive)
REMARK    1  A    between atoms: C_10  and  O_20
REMARK    2  A    between atoms: O_20  and  S_21
REMARK    3  A    between atoms: S_21  and  O_23
REMARK                            x       y       z     vdW  Elec       q    Type
REMARK                         _______ _______ _______ _____ _____    ______ ____
ROOT
ATOM      1  N   UNL     1      53.879 157.665  27.577  0.00  0.00    -0.268 NA
ATOM      2  C   UNL     1      53.001 157.577  28.522  0.00  0.00    +0.124 C 
ATOM      3  C   UNL     1      52.059 156.543  28.213  0.00  0.00    +0.010 C 
ATOM      4  C   UNL     1      52.399 156.008  27.050  0.00  0.00    +0.013 C 
ATOM      5  C   UNL     1      53.596 156.690  26.555  0.00  0.00    +0.076 C 
ATOM      6  C   UNL     1      54.159 156.364  25.412  0.00  0.00    +0.019 C 
ATOM      7  C   UNL     1      53.623 155.296  24.565  0.00  0.00    +0.002 C 
ATOM      8  C   UNL     1      52.426 154.648  25.106  0.00  0.00    +0.000 C 
ATOM      9  C   UNL     1      51.825 154.927  26.230  0.00  0.00    +0.001 C 
ATOM     10  C   UNL     1      50.897 156.171  29.094  0.00  0.00    +0.182 C 
ATOM     11  C   UNL     1      49.824 157.211  29.053  0.00  0.00    +0.109 C 
ATOM     12  N   UNL     1      49.307 157.616  30.327  0.00  0.00    -0.270 NA
ATOM     13  C   UNL     1      50.265 158.469  31.064  0.00  0.00    +0.072 C 
ATOM     14  C   UNL     1      50.759 159.586  30.280  0.00  0.00    +0.016 C 
ATOM     15  C   UNL     1      52.060 159.604  29.649  0.00  0.00    +0.004 C 
ATOM     16  C   UNL     1      52.944 158.419  29.773  0.00  0.00    +0.029 C 
ATOM     17  C   UNL     1      49.662 160.352  29.648  0.00  0.00    +0.003 C 
ATOM     18  C   UNL     1      48.502 159.567  29.144  0.00  0.00    +0.017 C 
ATOM     19  C   UNL     1      48.133 158.454  30.075  0.00  0.00    +0.072 C 
ENDROOT
BRANCH  10  20
ATOM     20  O   UNL     1      51.370 155.872  30.363  0.00  0.00    -0.214 OA
BRANCH  20  21
ATOM     21  S   UNL     1      51.547 154.212  30.641  0.00  0.00    +0.141 S 
ATOM     22  O   UNL     1      51.783 153.524  29.283  0.00  0.00    -0.137 OA
BRANCH  21  23
ATOM     23  O   UNL     1      50.193 153.505  31.343  0.00  0.00    -0.245 OA
ATOM     24  H   UNL     1      50.020 153.920  32.202  0.00  0.00    +0.245 HD
ENDBRANCH  21  23
ENDBRANCH  20  21
ENDBRANCH  10  20
TORSDOF 3
