REMARK  Name = =
REMARK  0 active torsions:
REMARK  status: ('A' for Active; 'I' for Inactive)
REMARK                            x       y       z     vdW  Elec       q    Type
REMARK                         _______ _______ _______ _____ _____    ______ ____
ROOT
ATOM      1  O   UNL     1      52.678 156.334  28.710  0.00  0.00    -0.448 OA
ATOM      2  C   UNL     1      52.804 156.384  27.282  0.00  0.00    +0.209 C 
ATOM      3  C   UNL     1      52.547 154.932  26.926  0.00  0.00    +0.059 C 
ATOM      4  C   UNL     1      51.351 154.646  27.840  0.00  0.00    +0.113 C 
ATOM      5  C   UNL     1      51.771 155.373  29.081  0.00  0.00    +0.317 C 
ATOM      6  O   UNL     1      51.314 155.081  30.223  0.00  0.00    -0.250 OA
ENDROOT
TORSDOF 0
