REMARK  Name = =
REMARK  0 active torsions:
REMARK  status: ('A' for Active; 'I' for Inactive)
REMARK                            x       y       z     vdW  Elec       q    Type
REMARK                         _______ _______ _______ _____ _____    ______ ____
ROOT
ATOM      1  C   UNL     1      52.008 156.015  28.543  0.00  0.00    +0.000 C 
ATOM      2  C   UNL     1      52.774 157.200  29.141  0.00  0.00    +0.000 C 
ATOM      3  C   UNL     1      51.636 158.221  29.213  0.00  0.00    +0.000 C 
ATOM      4  C   UNL     1      50.568 157.394  29.918  0.00  0.00    +0.000 C 
ATOM      5  C   UNL     1      50.838 155.953  29.533  0.00  0.00    +0.000 C 
ENDROOT
TORSDOF 0
