REMARK  Name = =
REMARK  2 active torsions:
REMARK  status: ('A' for Active; 'I' for Inactive)
REMARK    1  A    between atoms: C_1  and  O_15
REMARK    2  A    between atoms: O_15  and  N_16
REMARK                            x       y       z     vdW  Elec       q    Type
REMARK                         _______ _______ _______ _____ _____    ______ ____
ROOT
ATOM      1  C   UNL     1      52.670 154.845  28.022  0.00  0.00    +0.231 C 
ATOM      2  C   UNL     1      51.595 154.604  29.060  0.00  0.00    +0.193 C 
ATOM      3  O   UNL     1      51.730 155.581  30.046  0.00  0.00    -0.309 OA
ATOM      4  C   UNL     1      51.221 156.789  29.628  0.00  0.00    +0.296 C 
ATOM      5  O   UNL     1      49.863 156.931  29.902  0.00  0.00    -0.310 OA
ATOM      6  C   UNL     1      49.594 158.292  29.896  0.00  0.00    +0.177 C 
ATOM      7  C   UNL     1      50.998 158.903  29.789  0.00  0.00    +0.152 C 
ATOM      8  O   UNL     1      51.762 157.876  30.319  0.00  0.00    -0.312 OA
ATOM      9  C   UNL     1      50.997 160.150  30.601  0.00  0.00    +0.064 C 
ATOM     10  C   UNL     1      49.583 160.735  30.471  0.00  0.00    +0.145 C 
ATOM     11  O   UNL     1      48.787 160.032  31.352  0.00  0.00    -0.351 OA
ATOM     12  C   UNL     1      49.075 158.689  31.264  0.00  0.00    +0.174 C 
ATOM     13  C   UNL     1      51.530 157.012  28.158  0.00  0.00    +0.092 C 
ATOM     14  C   UNL     1      52.874 156.322  27.896  0.00  0.00    +0.057 C 
ENDROOT
BRANCH   1  15
ATOM     15  O   UNL     1      52.311 154.335  26.759  0.00  0.00    -0.337 OA
BRANCH  15  16
ATOM     16  N   UNL     1      53.023 153.448  26.032  0.00  0.00    +0.218 N 
ATOM     17  O   UNL     1      53.886 152.590  26.655  0.00  0.00    -0.090 OA
ATOM     18  O   UNL     1      52.888 153.417  24.799  0.00  0.00    -0.090 OA
ENDBRANCH  15  16
ENDBRANCH   1  15
TORSDOF 2
