REMARK  Name = =
REMARK  1 active torsions:
REMARK  status: ('A' for Active; 'I' for Inactive)
REMARK    1  A    between atoms: P_1  and  C_12
REMARK                            x       y       z     vdW  Elec       q    Type
REMARK                         _______ _______ _______ _____ _____    ______ ____
ROOT
ATOM      1  P   UNL     1      52.821 155.098  25.875  0.00  0.00    +0.383 P 
ATOM      2  O   UNL     1      51.598 154.956  24.967  0.00  0.00    -0.254 OA
ATOM      3  O   UNL     1      53.121 153.556  26.506  0.00  0.00    -0.292 OA
ATOM      4  C   UNL     1      53.209 152.683  25.434  0.00  0.00    +0.156 C 
ATOM      5  C   UNL     1      53.415 153.346  24.117  0.00  0.00    +0.173 C 
ATOM      6  O   UNL     1      53.945 152.296  23.340  0.00  0.00    -0.351 OA
ATOM      7  C   UNL     1      54.869 151.647  24.141  0.00  0.00    +0.145 C 
ATOM      8  C   UNL     1      54.312 151.680  25.558  0.00  0.00    +0.065 C 
ATOM      9  C   UNL     1      54.466 154.428  24.137  0.00  0.00    +0.183 C 
ATOM     10  O   UNL     1      54.112 155.520  24.905  0.00  0.00    -0.289 OA
ENDROOT
BRANCH   1  12
ATOM     11  O   UNL     1      53.505 157.098  27.533  0.00  0.00    -0.440 OA
ATOM     12  C   UNL     1      52.427 156.295  27.138  0.00  0.00    +0.272 C 
ATOM     13  C   UNL     1      52.120 155.535  28.427  0.00  0.00    +0.068 C 
ATOM     14  C   UNL     1      52.368 156.573  29.496  0.00  0.00    +0.114 C 
ATOM     15  C   UNL     1      53.195 157.591  28.794  0.00  0.00    +0.318 C 
ATOM     16  O   UNL     1      53.528 158.705  29.313  0.00  0.00    -0.250 OA
ENDBRANCH   1  12
TORSDOF 1
