REMARK  Name = =
REMARK  1 active torsions:
REMARK  status: ('A' for Active; 'I' for Inactive)
REMARK    1  A    between atoms: C_3  and  C_6
REMARK                            x       y       z     vdW  Elec       q    Type
REMARK                         _______ _______ _______ _____ _____    ______ ____
ROOT
ATOM      1  C   UNL     1      53.122 154.655  25.622  0.00  0.00    +0.235 C 
ATOM      2  N   UNL     1      53.091 155.695  26.405  0.00  0.00    -0.187 NA
ATOM      3  C   UNL     1      52.016 155.539  27.368  0.00  0.00    +0.105 C 
ATOM      4  C   UNL     1      51.776 154.055  27.316  0.00  0.00    +0.161 C 
ATOM      5  O   UNL     1      52.119 153.759  25.974  0.00  0.00    -0.335 OA
ENDROOT
BRANCH   3   6
ATOM      6  C   UNL     1      52.433 156.014  28.738  0.00  0.00    +0.019 C 
ATOM      7  C   UNL     1      52.744 157.479  28.692  0.00  0.00    +0.001 C 
ATOM      8  C   UNL     1      51.670 158.201  29.448  0.00  0.00    +0.000 C 
ATOM      9  C   UNL     1      50.689 157.172  29.945  0.00  0.00    +0.000 C 
ATOM     10  C   UNL     1      51.320 155.819  29.717  0.00  0.00    +0.001 C 
ENDBRANCH   3   6
TORSDOF 1
