REMARK  Name = =
REMARK  2 active torsions:
REMARK  status: ('A' for Active; 'I' for Inactive)
REMARK    1  A    between atoms: C_2  and  P_7
REMARK    2  A    between atoms: C_3  and  N_17
REMARK                            x       y       z     vdW  Elec       q    Type
REMARK                         _______ _______ _______ _____ _____    ______ ____
ROOT
ATOM      1  O   UNL     1      53.601 155.597  25.807  0.00  0.00    -0.438 OA
ATOM      2  C   UNL     1      53.700 154.614  26.832  0.00  0.00    +0.286 C 
ATOM      3  C   UNL     1      53.552 153.333  26.081  0.00  0.00    +0.121 C 
ATOM      4  C   UNL     1      52.488 153.732  25.043  0.00  0.00    +0.130 C 
ATOM      5  C   UNL     1      52.593 155.203  24.952  0.00  0.00    +0.319 C 
ATOM      6  O   UNL     1      51.906 155.951  24.241  0.00  0.00    -0.250 OA
ENDROOT
BRANCH   2   7
ATOM      7  P   UNL     1      52.368 154.885  27.996  0.00  0.00    +0.384 P 
ATOM      8  O   UNL     1      51.020 154.719  27.307  0.00  0.00    -0.254 OA
ATOM      9  O   UNL     1      52.401 156.397  28.715  0.00  0.00    -0.292 OA
ATOM     10  C   UNL     1      51.652 156.545  29.814  0.00  0.00    +0.156 C 
ATOM     11  C   UNL     1      51.204 155.412  30.590  0.00  0.00    +0.173 C 
ATOM     12  O   UNL     1      49.863 155.673  30.959  0.00  0.00    -0.351 OA
ATOM     13  C   UNL     1      49.317 156.406  29.912  0.00  0.00    +0.145 C 
ATOM     14  C   UNL     1      50.436 157.428  29.668  0.00  0.00    +0.065 C 
ATOM     15  C   UNL     1      51.270 154.057  30.033  0.00  0.00    +0.183 C 
ATOM     16  O   UNL     1      52.401 153.764  29.290  0.00  0.00    -0.289 OA
ENDBRANCH   2   7
BRANCH   3  17
ATOM     17  N   UNL     1      54.677 152.860  25.384  0.00  0.00    -0.270 NA
ATOM     18  C   UNL     1      55.222 151.605  25.730  0.00  0.00    +0.072 C 
ATOM     19  C   UNL     1      56.668 151.902  26.102  0.00  0.00    +0.019 C 
ATOM     20  C   UNL     1      57.009 152.966  25.054  0.00  0.00    +0.019 C 
ATOM     21  C   UNL     1      55.711 153.786  25.082  0.00  0.00    +0.072 C 
ENDBRANCH   3  17
TORSDOF 2
