REMARK  Name = =
REMARK  2 active torsions:
REMARK  status: ('A' for Active; 'I' for Inactive)
REMARK    1  A    between atoms: C_1  and  C_6
REMARK    2  A    between atoms: C_3  and  C_12
REMARK                            x       y       z     vdW  Elec       q    Type
REMARK                         _______ _______ _______ _____ _____    ______ ____
ROOT
ATOM      1  C   UNL     1      52.289 154.107  27.054  0.00  0.00    +0.242 C 
ATOM      2  N   UNL     1      51.849 155.279  27.264  0.00  0.00    -0.235 NA
ATOM      3  C   UNL     1      51.009 155.327  28.441  0.00  0.00    +0.150 C 
ATOM      4  C   UNL     1      51.274 154.022  29.102  0.00  0.00    +0.231 C 
ATOM      5  O   UNL     1      51.822 153.249  28.022  0.00  0.00    -0.457 OA
ENDROOT
BRANCH   1   6
ATOM      6  C   UNL     1      53.173 153.777  25.915  0.00  0.00    +0.175 C 
ATOM      7  C   UNL     1      53.446 152.466  25.588  0.00  0.00    +0.126 C 
ATOM      8  N   UNL     1      54.253 152.227  24.546  0.00  0.00    -0.219 NA
ATOM      9  C   UNL     1      54.807 153.202  23.807  0.00  0.00    +0.222 C 
ATOM     10  N   UNL     1      54.536 154.475  24.131  0.00  0.00    -0.125 NA
ATOM     11  N   UNL     1      53.742 154.708  25.157  0.00  0.00    -0.140 NA
ENDBRANCH   1   6
BRANCH   3  12
ATOM     12  C   UNL     1      51.455 156.515  29.256  0.00  0.00    +0.026 C 
ATOM     13  C   UNL     1      52.336 157.447  28.454  0.00  0.00    +0.002 C 
ATOM     14  C   UNL     1      52.375 158.668  29.363  0.00  0.00    +0.000 C 
ATOM     15  C   UNL     1      51.073 158.662  30.121  0.00  0.00    +0.000 C 
ATOM     16  C   UNL     1      50.315 157.417  29.645  0.00  0.00    +0.002 C 
ENDBRANCH   3  12
TORSDOF 2
