REMARK  Name = =
REMARK  3 active torsions:
REMARK  status: ('A' for Active; 'I' for Inactive)
REMARK    1  A    between atoms: C_1  and  C_15
REMARK    2  A    between atoms: C_1  and  O_17
REMARK    3  A    between atoms: O_17  and  N_18
REMARK                            x       y       z     vdW  Elec       q    Type
REMARK                         _______ _______ _______ _____ _____    ______ ____
ROOT
ATOM      1  C   UNL     1      51.662 155.763  29.111  0.00  0.00    +0.228 C 
ATOM      2  C   UNL     1      50.906 154.844  28.190  0.00  0.00    +0.195 C 
ATOM      3  O   UNL     1      51.069 155.158  26.848  0.00  0.00    -0.308 OA
ATOM      4  C   UNL     1      52.390 154.984  26.532  0.00  0.00    +0.296 C 
ATOM      5  O   UNL     1      52.933 153.807  27.030  0.00  0.00    -0.310 OA
ATOM      6  C   UNL     1      53.464 153.115  25.980  0.00  0.00    +0.177 C 
ATOM      7  C   UNL     1      53.656 154.243  24.952  0.00  0.00    +0.152 C 
ATOM      8  O   UNL     1      52.515 154.969  25.153  0.00  0.00    -0.312 OA
ATOM      9  C   UNL     1      53.707 153.521  23.621  0.00  0.00    +0.064 C 
ATOM     10  C   UNL     1      54.416 152.192  23.927  0.00  0.00    +0.145 C 
ATOM     11  O   UNL     1      55.403 152.386  24.914  0.00  0.00    -0.351 OA
ATOM     12  C   UNL     1      54.805 152.515  26.192  0.00  0.00    +0.174 C 
ATOM     13  C   UNL     1      53.179 156.122  27.135  0.00  0.00    +0.093 C 
ATOM     14  C   UNL     1      52.963 156.233  28.597  0.00  0.00    +0.059 C 
ENDROOT
BRANCH   1  15
ATOM     15  C   UNL     1      51.853 155.001  30.394  0.00  0.00    +0.107 C 
ATOM     16  N   UNL     1      50.908 154.756  31.191  0.00  0.00    -0.298 NA
ATOM     17  H   UNL     1      51.081 154.253  32.020  0.00  0.00    +0.187 HD
ENDBRANCH   1  15
BRANCH   1  18
ATOM     18  O   UNL     1      50.809 156.855  29.412  0.00  0.00    -0.335 OA
BRANCH  18  19
ATOM     19  N   UNL     1      51.277 158.138  29.455  0.00  0.00    +0.218 N 
ATOM     20  O   UNL     1      50.354 159.158  29.336  0.00  0.00    -0.090 OA
ATOM     21  O   UNL     1      52.477 158.441  29.593  0.00  0.00    -0.090 OA
ENDBRANCH  18  19
ENDBRANCH   1  18
TORSDOF 3
