REMARK  Name = =
REMARK  4 active torsions:
REMARK  status: ('A' for Active; 'I' for Inactive)
REMARK    1  A    between atoms: P_1  and  C_12
REMARK    2  A    between atoms: P_1  and  N_22
REMARK    3  A    between atoms: C_13  and  N_17
REMARK    4  A    between atoms: C_23  and  C_25
REMARK                            x       y       z     vdW  Elec       q    Type
REMARK                         _______ _______ _______ _____ _____    ______ ____
ROOT
ATOM      1  P   UNL     1      53.200 154.662  25.820  0.00  0.00    +0.314 P 
ATOM      2  O   UNL     1      51.826 154.579  25.327  0.00  0.00    -0.144 OA
ATOM      3  O   UNL     1      52.707 153.731  26.941  0.00  0.00    -0.295 OA
ATOM      4  C   UNL     1      51.672 153.969  27.790  0.00  0.00    +0.156 C 
ATOM      5  C   UNL     1      51.301 155.437  27.759  0.00  0.00    +0.173 C 
ATOM      6  O   UNL     1      50.596 155.613  28.921  0.00  0.00    -0.351 OA
ATOM      7  C   UNL     1      51.117 154.809  29.900  0.00  0.00    +0.145 C 
ATOM      8  C   UNL     1      52.080 153.844  29.266  0.00  0.00    +0.065 C 
ATOM      9  C   UNL     1      52.607 156.201  27.710  0.00  0.00    +0.183 C 
ATOM     10  O   UNL     1      53.663 155.526  27.196  0.00  0.00    -0.292 OA
ENDROOT
BRANCH   1  12
ATOM     11  O   UNL     1      54.485 152.423  25.946  0.00  0.00    -0.438 OA
ATOM     12  C   UNL     1      54.393 153.596  25.113  0.00  0.00    +0.281 C 
ATOM     13  C   UNL     1      53.881 153.050  23.801  0.00  0.00    +0.121 C 
ATOM     14  C   UNL     1      53.572 151.600  23.995  0.00  0.00    +0.130 C 
ATOM     15  C   UNL     1      53.784 151.375  25.427  0.00  0.00    +0.319 C 
ATOM     16  O   UNL     1      53.400 150.381  26.130  0.00  0.00    -0.250 OA
BRANCH  13  17
ATOM     17  N   UNL     1      54.944 153.199  22.829  0.00  0.00    -0.270 NA
ATOM     18  C   UNL     1      54.448 153.260  21.469  0.00  0.00    +0.072 C 
ATOM     19  C   UNL     1      55.523 153.974  20.678  0.00  0.00    +0.019 C 
ATOM     20  C   UNL     1      56.502 154.488  21.742  0.00  0.00    +0.019 C 
ATOM     21  C   UNL     1      55.582 154.503  22.960  0.00  0.00    +0.072 C 
ENDBRANCH  13  17
ENDBRANCH   1  12
BRANCH   1  22
ATOM     22  N   UNL     1      53.465 156.058  25.022  0.00  0.00    -0.234 N 
ATOM     23  C   UNL     1      54.675 156.745  24.653  0.00  0.00    +0.253 C 
ATOM     24  O   UNL     1      55.735 156.133  25.036  0.00  0.00    -0.270 OA
ATOM     25  H   UNL     1      52.642 156.518  24.739  0.00  0.00    +0.159 HD
BRANCH  23  26
ATOM     26  C   UNL     1      54.724 157.974  23.937  0.00  0.00    +0.058 C 
ATOM     27  C   UNL     1      53.799 158.410  23.100  0.00  0.00    +0.005 C 
ENDBRANCH  23  26
ENDBRANCH   1  22
TORSDOF 4
