REMARK  Name = =
REMARK  10 active torsions:
REMARK  status: ('A' for Active; 'I' for Inactive)
REMARK    1  A    between atoms: C_1  and  C_15
REMARK    2  A    between atoms: C_1  and  O_26
REMARK    3  A    between atoms: C_15  and  O_17
REMARK    4  A    between atoms: O_17  and  P_18
REMARK    5  A    between atoms: P_18  and  O_20
REMARK    6  A    between atoms: P_18  and  O_21
REMARK    7  A    between atoms: O_21  and  P_22
REMARK    8  A    between atoms: P_22  and  O_24
REMARK    9  A    between atoms: P_22  and  O_25
REMARK   10  A    between atoms: O_26  and  N_27
REMARK                            x       y       z     vdW  Elec       q    Type
REMARK                         _______ _______ _______ _____ _____    ______ ____
ROOT
ATOM      1  C   UNL     1      52.015 156.772  28.479  0.00  0.00    +0.259 C 
ATOM      2  C   UNL     1      52.374 156.726  27.020  0.00  0.00    +0.199 C 
ATOM      3  O   UNL     1      53.562 156.006  26.835  0.00  0.00    -0.308 OA
ATOM      4  C   UNL     1      53.223 154.658  27.057  0.00  0.00    +0.296 C 
ATOM      5  O   UNL     1      52.133 154.386  26.259  0.00  0.00    -0.310 OA
ATOM      6  C   UNL     1      52.496 153.345  25.397  0.00  0.00    +0.177 C 
ATOM      7  C   UNL     1      53.571 152.672  26.263  0.00  0.00    +0.152 C 
ATOM      8  O   UNL     1      54.249 153.809  26.703  0.00  0.00    -0.312 OA
ATOM      9  C   UNL     1      54.419 151.729  25.485  0.00  0.00    +0.064 C 
ATOM     10  C   UNL     1      54.268 151.985  24.006  0.00  0.00    +0.145 C 
ATOM     11  O   UNL     1      54.316 153.350  23.808  0.00  0.00    -0.351 OA
ATOM     12  C   UNL     1      53.153 153.991  24.195  0.00  0.00    +0.174 C 
ATOM     13  C   UNL     1      52.853 154.403  28.479  0.00  0.00    +0.093 C 
ATOM     14  C   UNL     1      52.488 155.606  29.266  0.00  0.00    +0.063 C 
ENDROOT
BRANCH   1  15
ATOM     15  C   UNL     1      52.561 158.036  29.034  0.00  0.00    +0.244 C 
ATOM     16  N   UNL     1      53.729 158.095  29.525  0.00  0.00    -0.267 NA
ATOM     17  H   UNL     1      54.295 157.290  29.546  0.00  0.00    +0.190 HD
BRANCH  15  18
ATOM     18  O   UNL     1      51.768 159.164  29.005  0.00  0.00    -0.386 OA
BRANCH  18  19
ATOM     19  P   UNL     1      50.662 159.512  30.262  0.00  0.00    +0.540 P 
ATOM     20  O   UNL     1      50.908 158.510  31.365  0.00  0.00    -0.215 OA
BRANCH  19  21
ATOM     21  O   UNL     1      49.098 159.391  29.638  0.00  0.00    -0.293 OA
ATOM     22  H   UNL     1      48.979 160.048  28.935  0.00  0.00    +0.223 HD
ENDBRANCH  19  21
BRANCH  19  23
ATOM     23  O   UNL     1      50.961 161.047  30.868  0.00  0.00    -0.176 OA
BRANCH  23  24
ATOM     24  P   UNL     1      49.900 161.466  32.109  0.00  0.00    +0.482 P 
ATOM     25  O   UNL     1      48.653 162.096  31.501  0.00  0.00    -0.227 OA
BRANCH  24  26
ATOM     26  O   UNL     1      49.419 160.148  33.021  0.00  0.00    -0.302 OA
ATOM     27  H   UNL     1      50.198 159.729  33.419  0.00  0.00    +0.222 HD
ENDBRANCH  24  26
BRANCH  24  28
ATOM     28  O   UNL     1      50.585 162.636  33.132  0.00  0.00    -0.302 OA
ATOM     29  H   UNL     1      51.386 162.276  33.543  0.00  0.00    +0.222 HD
ENDBRANCH  24  28
ENDBRANCH  23  24
ENDBRANCH  19  23
ENDBRANCH  18  19
ENDBRANCH  15  18
ENDBRANCH   1  15
BRANCH   1  30
ATOM     30  O   UNL     1      50.591 156.882  28.568  0.00  0.00    -0.332 OA
BRANCH  30  31
ATOM     31  N   UNL     1      49.964 155.994  29.401  0.00  0.00    +0.218 N 
ATOM     32  O   UNL     1      50.504 155.576  30.599  0.00  0.00    -0.090 OA
ATOM     33  O   UNL     1      48.837 155.511  29.100  0.00  0.00    -0.090 OA
ENDBRANCH  30  31
ENDBRANCH   1  30
TORSDOF 10
