REMARK  Name = =
REMARK  4 active torsions:
REMARK  status: ('A' for Active; 'I' for Inactive)
REMARK    1  A    between atoms: C_1  and  C_6
REMARK    2  A    between atoms: C_3  and  C_12
REMARK    3  A    between atoms: C_12  and  N_17
REMARK    4  A    between atoms: N_18  and  N_19
REMARK                            x       y       z     vdW  Elec       q    Type
REMARK                         _______ _______ _______ _____ _____    ______ ____
ROOT
ATOM      1  C   UNL     1      52.044 154.942  28.562  0.00  0.00    +0.242 C 
ATOM      2  N   UNL     1      51.661 154.284  27.528  0.00  0.00    -0.233 NA
ATOM      3  C   UNL     1      52.457 153.145  27.258  0.00  0.00    +0.172 C 
ATOM      4  C   UNL     1      53.320 153.039  28.472  0.00  0.00    +0.233 C 
ATOM      5  O   UNL     1      53.149 154.283  29.074  0.00  0.00    -0.457 OA
ENDROOT
BRANCH   1   6
ATOM      6  C   UNL     1      51.449 156.169  29.126  0.00  0.00    +0.175 C 
ATOM      7  C   UNL     1      52.189 157.328  29.192  0.00  0.00    +0.126 C 
ATOM      8  N   UNL     1      51.633 158.444  29.710  0.00  0.00    -0.219 NA
ATOM      9  C   UNL     1      50.368 158.476  30.173  0.00  0.00    +0.222 C 
ATOM     10  N   UNL     1      49.665 157.330  30.098  0.00  0.00    -0.125 NA
ATOM     11  N   UNL     1      50.190 156.212  29.591  0.00  0.00    -0.140 NA
ENDBRANCH   1   6
BRANCH   3  12
ATOM     12  C   UNL     1      53.207 153.178  25.973  0.00  0.00    +0.130 C 
ATOM     13  C   UNL     1      52.978 151.985  25.092  0.00  0.00    +0.026 C 
ATOM     14  C   UNL     1      54.013 152.230  24.003  0.00  0.00    +0.002 C 
ATOM     15  C   UNL     1      55.141 152.995  24.679  0.00  0.00    +0.002 C 
ATOM     16  C   UNL     1      54.708 153.151  26.137  0.00  0.00    +0.026 C 
BRANCH  12  17
ATOM     17  N   UNL     1      52.888 154.362  25.197  0.00  0.00    -0.161 NA
ATOM     18  N   UNL     1      53.436 155.443  25.541  0.00  0.00    -0.089 NA
BRANCH  18  19
ATOM     19  N   UNL     1      53.226 156.664  24.890  0.00  0.00    -0.265 N 
ATOM     20  H   UNL     1      53.684 157.476  25.207  0.00  0.00    +0.166 HD
ATOM     21  H   UNL     1      52.620 156.711  24.115  0.00  0.00    +0.166 HD
ENDBRANCH  18  19
ENDBRANCH  12  17
ENDBRANCH   3  12
TORSDOF 4
