REMARK  Name = =
REMARK  12 active torsions:
REMARK  status: ('A' for Active; 'I' for Inactive)
REMARK    1  A    between atoms: N_1  and  C_3
REMARK    2  A    between atoms: N_1  and  N_14
REMARK    3  A    between atoms: N_1  and  P_25
REMARK    4  A    between atoms: C_2  and  N_8
REMARK    5  A    between atoms: C_6  and  C_11
REMARK    6  A    between atoms: C_11  and  O_13
REMARK    7  A    between atoms: N_14  and  N_17
REMARK    8  A    between atoms: C_15  and  C_22
REMARK    9  A    between atoms: N_17  and  O_21
REMARK   10  A    between atoms: C_22  and  O_24
REMARK   11  A    between atoms: P_25  and  N_27
REMARK   12  A    between atoms: P_25  and  N_28
REMARK                            x       y       z     vdW  Elec       q    Type
REMARK                         _______ _______ _______ _____ _____    ______ ____
ROOT
ATOM      1  N   UNL     1      50.140 160.515  32.281  0.00  0.00    -0.093 NA
ENDROOT
BRANCH   1   3
ATOM      2  C   UNL     1      51.532 162.285  31.605  0.00  0.00    +0.156 C 
ATOM      3  C   UNL     1      51.384 160.992  31.726  0.00  0.00    +0.203 C 
ATOM      4  N   UNL     1      52.386 160.056  31.343  0.00  0.00    -0.314 N 
ATOM      5  C   UNL     1      53.578 160.609  30.812  0.00  0.00    +0.066 C 
ATOM      6  C   UNL     1      53.757 161.897  30.679  0.00  0.00    +0.091 C 
ATOM      7  C   UNL     1      52.761 162.880  31.058  0.00  0.00    +0.031 C 
ATOM      8  H   UNL     1      52.259 159.085  31.441  0.00  0.00    +0.148 HD
BRANCH   2   9
ATOM      9  N   UNL     1      50.454 163.176  32.021  0.00  0.00    +0.057 N 
ATOM     10  O   UNL     1      49.233 163.202  31.432  0.00  0.00    -0.126 OA
ATOM     11  O   UNL     1      50.703 163.936  32.956  0.00  0.00    -0.126 OA
ENDBRANCH   2   9
BRANCH   6  12
ATOM     12  C   UNL     1      55.045 162.380  30.111  0.00  0.00    +0.339 C 
ATOM     13  O   UNL     1      55.233 163.592  29.912  0.00  0.00    -0.245 OA
BRANCH  12  14
ATOM     14  O   UNL     1      56.067 161.494  29.793  0.00  0.00    -0.477 OA
ATOM     15  H   UNL     1      55.951 160.575  29.933  0.00  0.00    +0.295 HD
ENDBRANCH  12  14
ENDBRANCH   6  12
ENDBRANCH   1   3
BRANCH   1  16
ATOM     16  N   UNL     1      49.237 159.867  31.458  0.00  0.00    -0.099 N 
ATOM     17  C   UNL     1      47.927 160.285  31.166  0.00  0.00    +0.357 C 
ATOM     18  O   UNL     1      47.512 161.347  31.693  0.00  0.00    -0.260 OA
BRANCH  16  19
ATOM     19  N   UNL     1      49.668 158.657  30.847  0.00  0.00    -0.058 N 
ATOM     20  C   UNL     1      50.436 158.650  29.665  0.00  0.00    +0.342 C 
ATOM     21  O   UNL     1      50.780 159.702  29.079  0.00  0.00    -0.249 OA
ATOM     22  N   UNL     1      50.840 157.415  29.106  0.00  0.00    -0.310 N 
ATOM     23  H   UNL     1      50.586 156.570  29.543  0.00  0.00    +0.147 HD
ATOM     24  H   UNL     1      51.376 157.400  28.280  0.00  0.00    +0.147 HD
BRANCH  19  25
ATOM     25  O   UNL     1      49.343 157.467  31.410  0.00  0.00    -0.273 OA
ATOM     26  H   UNL     1      48.818 157.621  32.211  0.00  0.00    +0.244 HD
ENDBRANCH  19  25
ENDBRANCH  16  19
BRANCH  17  27
ATOM     27  C   UNL     1      47.026 159.566  30.292  0.00  0.00    +0.395 C 
ATOM     28  O   UNL     1      47.457 158.629  29.591  0.00  0.00    -0.240 OA
BRANCH  27  29
ATOM     29  O   UNL     1      45.699 159.907  30.230  0.00  0.00    -0.474 OA
ATOM     30  H   UNL     1      45.371 160.610  30.755  0.00  0.00    +0.296 HD
ENDBRANCH  27  29
ENDBRANCH  17  27
ENDBRANCH   1  16
BRANCH   1  31
ATOM     31  P   UNL     1      49.762 160.709  33.971  0.00  0.00    +0.298 P 
ATOM     32  O   UNL     1      48.593 161.633  34.189  0.00  0.00    -0.268 OA
BRANCH  31  33
ATOM     33  N   UNL     1      51.119 161.398  34.850  0.00  0.00    -0.255 NA
ATOM     34  H   UNL     1      51.347 162.313  34.460  0.00  0.00    +0.128 HD
ATOM     35  H   UNL     1      51.927 160.781  34.766  0.00  0.00    +0.128 HD
ENDBRANCH  31  33
BRANCH  31  36
ATOM     36  N   UNL     1      49.420 159.135  34.692  0.00  0.00    -0.255 NA
ATOM     37  H   UNL     1      48.635 158.702  34.206  0.00  0.00    +0.128 HD
ATOM     38  H   UNL     1      49.185 159.256  35.677  0.00  0.00    +0.128 HD
ENDBRANCH  31  36
ENDBRANCH   1  31
TORSDOF 12
