MODEL 1
REMARK VINA RESULT:    -7.437      0.000      0.000
REMARK INTER + INTRA:          -9.668
REMARK INTER:                  -8.959
REMARK INTRA:                  -0.709
REMARK UNBOUND:                -0.709
REMARK  Name = =
REMARK  4 active torsions:
REMARK  status: ('A' for Active; 'I' for Inactive)
REMARK    1  A    between atoms: O_1  and  C_10
REMARK    2  A    between atoms: O_1  and  C_14
REMARK    3  A    between atoms: C_12  and  O_13
REMARK    4  A    between atoms: C_19  and  N_20
REMARK                            x       y       z     vdW  Elec       q    Type
REMARK                         _______ _______ _______ _____ _____    ______ ____
ROOT
ATOM      1  O   UNL     1      49.677 163.446  42.185  0.00  0.00    -0.456 OA
ENDROOT
BRANCH   1  10
ATOM      2  O   UNL     1      54.394 162.329  41.976  0.00  0.00    -0.475 OA
ATOM      3  C   UNL     1      55.279 161.574  41.161  0.00  0.00    +0.214 C 
ATOM      4  C   UNL     1      55.122 160.082  41.334  0.00  0.00    +0.117 C 
ATOM      5  C   UNL     1      53.928 159.711  42.087  0.00  0.00    +0.183 C 
ATOM      6  O   UNL     1      53.845 158.641  42.709  0.00  0.00    -0.291 OA
ATOM      7  C   UNL     1      52.779 160.631  42.114  0.00  0.00    +0.103 C 
ATOM      8  C   UNL     1      53.051 161.995  42.056  0.00  0.00    +0.147 C 
ATOM      9  C   UNL     1      52.031 162.911  42.079  0.00  0.00    +0.075 C 
ATOM     10  C   UNL     1      50.705 162.526  42.160  0.00  0.00    +0.151 C 
ATOM     11  C   UNL     1      50.474 161.173  42.215  0.00  0.00    +0.074 C 
ATOM     12  C   UNL     1      51.482 160.212  42.194  0.00  0.00    +0.142 C 
BRANCH  12  13
ATOM     13  O   UNL     1      51.189 158.872  42.249  0.00  0.00    -0.505 OA
ATOM     14  H   UNL     1      51.632 158.320  42.864  0.00  0.00    +0.292 HD
ENDBRANCH  12  13
ENDBRANCH   1  10
BRANCH   1  15
ATOM     15  C   UNL     1      48.918 163.702  41.079  0.00  0.00    +0.136 C 
ATOM     16  C   UNL     1      48.216 162.711  40.509  0.00  0.00    +0.008 C 
ATOM     17  C   UNL     1      47.417 163.044  39.322  0.00  0.00    +0.029 C 
ATOM     18  C   UNL     1      46.658 164.326  39.428  0.00  0.00    +0.007 C 
ATOM     19  C   UNL     1      47.300 165.334  40.353  0.00  0.00    +0.028 C 
ATOM     20  C   UNL     1      48.792 165.029  40.417  0.00  0.00    +0.132 C 
BRANCH  20  21
ATOM     21  N   UNL     1      49.546 166.057  41.056  0.00  0.00    -0.274 N 
ATOM     22  C   UNL     1      48.911 166.829  42.126  0.00  0.00    +0.094 C 
ATOM     23  C   UNL     1      49.442 168.244  42.160  0.00  0.00    +0.022 C 
ATOM     24  C   UNL     1      50.931 168.269  42.314  0.00  0.00    +0.011 C 
ATOM     25  C   UNL     1      51.540 167.649  41.068  0.00  0.00    +0.085 C 
ATOM     26  C   UNL     1      50.868 166.364  40.710  0.00  0.00    +0.226 C 
ATOM     27  O   UNL     1      51.556 165.534  40.062  0.00  0.00    -0.275 OA
ENDBRANCH  20  21
ENDBRANCH   1  15
TORSDOF 4
ENDMDL
