MODEL 1
REMARK VINA RESULT:    -9.389      0.000      0.000
REMARK INTER + INTRA:         -14.850
REMARK INTER:                 -13.779
REMARK INTRA:                  -1.070
REMARK UNBOUND:                -1.070
REMARK  Name = 
REMARK  10 active torsions:
REMARK  status: ('A' for Active; 'I' for Inactive)
REMARK    1  A    between atoms: C_1  and  C_16
REMARK    2  A    between atoms: C_3  and  C_6
REMARK    3  A    between atoms: C_7  and  O_14
REMARK    4  A    between atoms: C_10  and  O_12
REMARK    5  A    between atoms: O_12  and  C_13
REMARK    6  A    between atoms: O_14  and  C_15
REMARK    7  A    between atoms: C_16  and  O_18
REMARK    8  A    between atoms: O_18  and  N_19
REMARK    9  A    between atoms: C_20  and  C_21
REMARK   10  A    between atoms: C_21  and  C_22
REMARK                            x       y       z     vdW  Elec       q    Type
REMARK                         _______ _______ _______ _____ _____    ______ ____
ROOT
ATOM      1  C   UNL     1     -12.059 -42.930  28.063  0.00  0.00    +0.000 A 
ATOM      2  C   UNL     1     -13.016 -42.203  27.385  0.00  0.00    +0.000 A 
ATOM      3  C   UNL     1     -14.144 -42.958  27.215  0.00  0.00    +0.000 A 
ATOM      4  N   UNL     1     -13.850 -44.157  27.805  0.00  0.00    +0.000 NA
ATOM      5  N   UNL     1     -12.619 -44.107  28.292  0.00  0.00    +0.000 N 
ATOM      6  H   UNL     1     -12.177 -44.929  28.790  0.00  0.00    +0.000 HD
ENDROOT
BRANCH   3   7
ATOM      7  C   UNL     1     -15.380 -42.588  26.579  0.00  0.00    +0.000 A 
ATOM      8  C   UNL     1     -15.553 -42.618  25.220  0.00  0.00    +0.000 A 
ATOM      9  C   UNL     1     -16.780 -42.247  24.680  0.00  0.00    +0.000 A 
ATOM     10  C   UNL     1     -17.851 -41.840  25.486  0.00  0.00    +0.000 A 
ATOM     11  C   UNL     1     -17.679 -41.810  26.843  0.00  0.00    +0.000 A 
ATOM     12  C   UNL     1     -16.472 -42.176  27.367  0.00  0.00    +0.000 A 
BRANCH  11  13
ATOM     13  O   UNL     1     -18.727 -41.406  27.690  0.00  0.00    +0.000 OA
ATOM     14  C   UNL     1     -19.982 -41.037  27.141  0.00  0.00    +0.000 C 
ENDBRANCH  11  13
BRANCH   8  15
ATOM     15  O   UNL     1     -14.555 -43.001  24.357  0.00  0.00    +0.000 OA
ATOM     16  C   UNL     1     -14.370 -44.281  23.795  0.00  0.00    +0.000 C 
ENDBRANCH   8  15
ENDBRANCH   3   7
BRANCH   1  17
ATOM     17  C   UNL     1     -10.724 -42.460  28.433  0.00  0.00    +0.000 C 
ATOM     18  O   UNL     1     -10.333 -41.319  27.903  0.00  0.00    +0.000 OA
BRANCH  17  19
ATOM     19  O   UNL     1      -9.842 -42.981  29.206  0.00  0.00    +0.000 OA
BRANCH  19  20
ATOM     20  N   UNL     1      -9.281 -43.552  30.132  0.00  0.00    +0.000 NA
ATOM     21  C   UNL     1      -9.642 -43.345  31.510  0.00  0.00    +0.000 C 
ATOM     22  C   UNL     1     -10.919 -44.080  31.756  0.00  0.00    +0.000 C 
ATOM     23  C   UNL     1     -10.911 -45.528  31.359  0.00  0.00    +0.000 C 
ATOM     24  C   UNL     1     -10.124 -45.856  30.156  0.00  0.00    +0.000 C 
ATOM     25  C   UNL     1      -8.980 -44.948  29.850  0.00  0.00    +0.000 C 
BRANCH  21  26
ATOM     26  C   UNL     1      -8.583 -43.759  32.472  0.00  0.00    +0.000 C 
BRANCH  26  27
ATOM     27  C   UNL     1      -8.044 -42.617  33.297  0.00  0.00    +0.000 C 
ATOM     28 BR   UNL     1      -9.467 -41.821  34.372  0.00  0.00    +0.000 Br
ENDBRANCH  26  27
ENDBRANCH  21  26
ENDBRANCH  19  20
ENDBRANCH  17  19
ENDBRANCH   1  17
TORSDOF 8
ENDMDL
