MODEL 1
REMARK VINA RESULT:   -11.064      0.000      0.000
REMARK INTER + INTRA:         -18.080
REMARK INTER:                 -18.502
REMARK INTRA:                   0.422
REMARK UNBOUND:                 0.422
REMARK  Name = 
REMARK  14 active torsions:
REMARK  status: ('A' for Active; 'I' for Inactive)
REMARK    1  A    between atoms: C_1  and  C_2
REMARK    2  A    between atoms: C_1  and  O_5
REMARK    3  A    between atoms: C_1  and  C_13
REMARK    4  A    between atoms: C_1  and  C_14
REMARK    5  A    between atoms: C_2  and  O_4
REMARK    6  A    between atoms: O_5  and  C_6
REMARK    7  A    between atoms: C_9  and  C_12
REMARK    8  A    between atoms: C_14  and  N_15
REMARK    9  A    between atoms: N_15  and  C_16
REMARK   10  A    between atoms: C_16  and  C_17
REMARK   11  A    between atoms: C_16  and  C_23
REMARK   12  A    between atoms: C_29  and  C_31
REMARK   13  A    between atoms: C_31  and  N_32
REMARK   14  A    between atoms: N_32  and  C_33
REMARK                            x       y       z     vdW  Elec       q    Type
REMARK                         _______ _______ _______ _____ _____    ______ ____
ROOT
ATOM      1  N   UNL     1     -11.862 -42.836  28.859  0.00  0.00    +0.000 N 
ATOM      2  C   UNL     1     -10.764 -41.973  29.157  0.00  0.00    +0.000 C 
ATOM      3  O   UNL     1     -10.577 -40.973  28.440  0.00  0.00    +0.000 OA
ENDROOT
BRANCH   1   4
ATOM      4  C   UNL     1     -12.584 -42.628  27.667  0.00  0.00    +0.000 C 
BRANCH   4   5
ATOM      5  C   UNL     1     -13.808 -43.438  27.278  0.00  0.00    +0.000 C 
ATOM      6  C   UNL     1     -14.657 -43.615  28.492  0.00  0.00    +0.000 C 
BRANCH   5   7
ATOM      7  C   UNL     1     -13.541 -44.603  26.461  0.00  0.00    +0.000 C 
ATOM      8  O   UNL     1     -12.960 -45.666  26.836  0.00  0.00    +0.000 OA
BRANCH   7   9
ATOM      9  O   UNL     1     -13.925 -44.641  25.117  0.00  0.00    +0.000 OA
ATOM     10  H   UNL     1     -13.268 -44.932  24.387  0.00  0.00    +0.000 HD
ENDBRANCH   7   9
ENDBRANCH   5   7
BRANCH   5  11
ATOM     11  O   UNL     1     -14.574 -42.514  26.446  0.00  0.00    +0.000 OA
BRANCH  11  12
ATOM     12  C   UNL     1     -15.862 -42.199  26.513  0.00  0.00    +0.000 A 
ATOM     13  C   UNL     1     -16.592 -42.016  27.644  0.00  0.00    +0.000 A 
ATOM     14  C   UNL     1     -17.951 -41.689  27.634  0.00  0.00    +0.000 A 
ATOM     15  C   UNL     1     -18.600 -41.542  26.415  0.00  0.00    +0.000 A 
ATOM     16  C   UNL     1     -17.879 -41.722  25.274  0.00  0.00    +0.000 A 
ATOM     17  C   UNL     1     -16.538 -42.045  25.283  0.00  0.00    +0.000 A 
ATOM     18  C   UNL     1     -20.052 -41.210  26.429  0.00  0.00    +0.000 C 
ENDBRANCH  11  12
ENDBRANCH   5  11
ENDBRANCH   4   5
ENDBRANCH   1   4
BRANCH   1  19
ATOM     19  C   UNL     1     -12.221 -43.943  29.704  0.00  0.00    +0.000 C 
BRANCH  19  20
ATOM     20  C   UNL     1     -12.907 -43.776  30.955  0.00  0.00    +0.000 A 
ATOM     21  C   UNL     1     -12.967 -42.724  31.813  0.00  0.00    +0.000 A 
ATOM     22  C   UNL     1     -13.612 -42.702  33.025  0.00  0.00    +0.000 A 
ATOM     23  C   UNL     1     -14.278 -43.838  33.442  0.00  0.00    +0.000 A 
ATOM     24  C   UNL     1     -14.254 -44.936  32.613  0.00  0.00    +0.000 A 
ATOM     25  C   UNL     1     -13.600 -44.940  31.401  0.00  0.00    +0.000 A 
ENDBRANCH  19  20
BRANCH  19  26
ATOM     26  C   UNL     1     -11.136 -44.942  29.827  0.00  0.00    +0.000 A 
ATOM     27  C   UNL     1     -10.531 -45.444  28.712  0.00  0.00    +0.000 A 
ATOM     28  C   UNL     1      -9.495 -46.381  28.763  0.00  0.00    +0.000 A 
ATOM     29  C   UNL     1      -9.074 -46.808  29.988  0.00  0.00    +0.000 A 
ATOM     30  C   UNL     1      -9.660 -46.326  31.148  0.00  0.00    +0.000 A 
ATOM     31  C   UNL     1     -10.682 -45.401  31.057  0.00  0.00    +0.000 A 
ENDBRANCH  19  26
ENDBRANCH   1  19
BRANCH   2  32
ATOM     32  C   UNL     1      -9.801 -42.169  30.257  0.00  0.00    +0.000 C 
BRANCH  32  33
ATOM     33  N   UNL     1      -8.546 -42.709  29.863  0.00  0.00    +0.000 NA
ATOM     34  H   UNL     1      -8.241 -42.547  28.899  0.00  0.00    +0.000 HD
BRANCH  33  35
ATOM     35  C   UNL     1      -7.469 -42.684  30.775  0.00  0.00    +0.000 C 
ATOM     36  C   UNL     1      -8.089 -42.607  32.184  0.00  0.00    +0.000 C 
ATOM     37  C   UNL     1      -7.283 -43.580  33.011  0.00  0.00    +0.000 C 
ATOM     38  C   UNL     1      -6.997 -44.701  32.039  0.00  0.00    +0.000 C 
ATOM     39  C   UNL     1      -6.764 -44.013  30.740  0.00  0.00    +0.000 C 
ENDBRANCH  33  35
ENDBRANCH  32  33
ENDBRANCH   2  32
TORSDOF 12
ENDMDL
