MODEL 1
REMARK VINA RESULT:   -10.163      0.000      0.000
REMARK INTER + INTRA:         -15.102
REMARK INTER:                 -14.618
REMARK INTRA:                  -0.484
REMARK UNBOUND:                -0.484
REMARK  Name = 
REMARK  8 active torsions:
REMARK  status: ('A' for Active; 'I' for Inactive)
REMARK    1  A    between atoms: CG_1  and  CB_10
REMARK    2  A    between atoms: CB_10  and  CA_11
REMARK    3  A    between atoms: CA_11  and  C_12
REMARK    4  A    between atoms: CA_11  and  N_15
REMARK    5  A    between atoms: C_12  and  OXT_14
REMARK    6  A    between atoms: C_16  and  C_18
REMARK    7  A    between atoms: C_18  and  O_19
REMARK    8  A    between atoms: O_19  and  C_20
REMARK                            x       y       z     vdW  Elec       q    Type
REMARK                         _______ _______ _______ _____ _____    ______ ____
ROOT
ATOM      1  CA  TRP A   1     -12.473 -44.099  31.496  0.00  0.00    +0.000 C 
ENDROOT
BRANCH   1   2
ATOM      2  N   TRP A   1     -12.610 -43.287  30.252  0.00  0.00    +0.000 N 
ATOM      3  C   UNK A   0     -12.368 -43.832  28.988  0.00  0.00    +0.000 C 
ATOM      4  O   UNK A   0     -12.024 -45.042  28.875  0.00  0.00    +0.000 OA
ATOM      5  H   TRP A   1     -12.895 -42.308  30.385  0.00  0.00    +0.000 HD
BRANCH   3   6
ATOM      6  C   UNK A   0     -12.533 -42.941  27.798  0.00  0.00    +0.000 C 
BRANCH   6   7
ATOM      7  O   UNK A   0     -13.194 -43.694  26.798  0.00  0.00    +0.000 OA
BRANCH   7   8
ATOM      8  C   UNK A   0     -14.274 -43.203  26.084  0.00  0.00    +0.000 A 
ATOM      9  C   UNK A   0     -15.329 -42.625  26.763  0.00  0.00    +0.000 A 
ATOM     10  C   UNK A   0     -16.432 -42.118  26.101  0.00  0.00    +0.000 A 
ATOM     11  C   UNK A   0     -16.447 -42.210  24.737  0.00  0.00    +0.000 A 
ATOM     12  C   UNK A   0     -15.408 -42.781  24.040  0.00  0.00    +0.000 A 
ATOM     13  C   UNK A   0     -14.321 -43.278  24.722  0.00  0.00    +0.000 A 
ENDBRANCH   7   8
ENDBRANCH   6   7
ENDBRANCH   3   6
ENDBRANCH   1   2
BRANCH   1  14
ATOM     14  C   TRP A   1     -13.796 -44.615  31.879  0.00  0.00    +0.000 C 
ATOM     15  O   TRP A   1     -14.649 -43.814  32.389  0.00  0.00    +0.000 OA
BRANCH  14  16
ATOM     16  OXT TRP A   1     -14.200 -45.926  31.724  0.00  0.00    +0.000 OA
ATOM     17  HXT TRP A   1     -13.829 -46.697  32.263  0.00  0.00    +0.000 HD
ENDBRANCH  14  16
ENDBRANCH   1  14
BRANCH   1  18
ATOM     18  CB  TRP A   1     -11.792 -43.228  32.510  0.00  0.00    +0.000 C 
BRANCH  18  19
ATOM     19  CG  TRP A   1     -10.313 -43.306  32.501  0.00  0.00    +0.000 A 
ATOM     20  CD1 TRP A   1      -9.459 -42.326  33.037  0.00  0.00    +0.000 A 
ATOM     21  NE1 TRP A   1      -8.187 -42.699  32.919  0.00  0.00    +0.000 N 
ATOM     22  CE2 TRP A   1      -8.130 -43.917  32.311  0.00  0.00    +0.000 A 
ATOM     23  CD2 TRP A   1      -9.455 -44.285  32.054  0.00  0.00    +0.000 A 
ATOM     24  CE3 TRP A   1      -9.686 -45.484  31.427  0.00  0.00    +0.000 A 
ATOM     25  CZ3 TRP A   1      -8.608 -46.282  31.074  0.00  0.00    +0.000 A 
ATOM     26  CH2 TRP A   1      -7.314 -45.895  31.340  0.00  0.00    +0.000 A 
ATOM     27  CZ2 TRP A   1      -7.057 -44.698  31.967  0.00  0.00    +0.000 A 
ATOM     28  HE1 TRP A   1      -7.314 -42.189  33.222  0.00  0.00    +0.000 HD
ENDBRANCH  18  19
ENDBRANCH   1  18
TORSDOF 8
ENDMDL
