MODEL 1
REMARK VINA RESULT:    -8.844      0.000      0.000
REMARK INTER + INTRA:         -15.877
REMARK INTER:                 -15.048
REMARK INTRA:                  -0.829
REMARK UNBOUND:                -0.829
REMARK  Name = 
REMARK  15 active torsions:
REMARK  status: ('A' for Active; 'I' for Inactive)
REMARK    1  A    between atoms: N_1  and  C_2
REMARK    2  A    between atoms: N_1  and  C_7
REMARK    3  A    between atoms: N_1  and  C_8
REMARK    4  A    between atoms: C_2  and  C_3
REMARK    5  A    between atoms: C_3  and  C_4
REMARK    6  A    between atoms: C_4  and  C_5
REMARK    7  A    between atoms: C_5  and  N_6
REMARK    8  A    between atoms: C_8  and  N_9
REMARK    9  A    between atoms: C_14  and  C_15
REMARK   10  A    between atoms: C_17  and  O_26
REMARK   11  A    between atoms: C_18  and  O_19
REMARK   12  A    between atoms: O_19  and  C_20
REMARK   13  A    between atoms: C_20  and  C_21
REMARK   14  A    between atoms: C_21  and  O_23
REMARK   15  A    between atoms: O_26  and  C_27
REMARK                            x       y       z     vdW  Elec       q    Type
REMARK                         _______ _______ _______ _____ _____    ______ ____
ROOT
ATOM      1  N   UNL     1      -9.670 -43.703  29.009  0.00  0.00    +0.000 N 
ATOM      2  C   UNL     1      -9.746 -42.486  28.255  0.00  0.00    +0.000 C 
ATOM      3  O   UNL     1      -8.875 -41.717  27.840  0.00  0.00    +0.000 OA
ATOM      4  S   UNL     1     -11.521 -42.252  27.989  0.00  0.00    +0.000 S 
ATOM      5  C   UNL     1     -11.891 -44.025  28.126  0.00  0.00    +0.000 C 
ATOM      6  C   UNL     1     -12.908 -44.649  27.596  0.00  0.00    +0.000 C 
ATOM      7  C   UNL     1     -10.787 -44.512  28.946  0.00  0.00    +0.000 C 
ATOM      8  O   UNL     1     -10.917 -45.641  29.546  0.00  0.00    +0.000 OA
ENDROOT
BRANCH   6   9
ATOM      9  C   UNL     1     -13.887 -43.908  26.801  0.00  0.00    +0.000 A 
ATOM     10  C   UNL     1     -14.914 -43.188  27.420  0.00  0.00    +0.000 A 
ATOM     11  C   UNL     1     -15.852 -42.470  26.709  0.00  0.00    +0.000 A 
ATOM     12  C   UNL     1     -15.799 -42.441  25.322  0.00  0.00    +0.000 A 
ATOM     13  C   UNL     1     -14.787 -43.149  24.728  0.00  0.00    +0.000 A 
ATOM     14  C   UNL     1     -13.839 -43.876  25.440  0.00  0.00    +0.000 A 
BRANCH  11  15
ATOM     15  O   UNL     1     -16.875 -41.753  27.310  0.00  0.00    +0.000 OA
ATOM     16  C   UNL     1     -17.276 -42.109  28.617  0.00  0.00    +0.000 C 
ENDBRANCH  11  15
BRANCH  12  17
ATOM     17  O   UNL     1     -16.731 -41.726  24.585  0.00  0.00    +0.000 OA
BRANCH  17  18
ATOM     18  C   UNL     1     -16.844 -41.790  23.195  0.00  0.00    +0.000 C 
BRANCH  18  19
ATOM     19  C   UNL     1     -17.666 -40.656  22.664  0.00  0.00    +0.000 C 
ATOM     20  O   UNL     1     -18.791 -40.358  23.119  0.00  0.00    +0.000 OA
BRANCH  19  21
ATOM     21  O   UNL     1     -17.171 -39.896  21.624  0.00  0.00    +0.000 OA
ATOM     22  H   UNL     1     -16.918 -38.915  21.769  0.00  0.00    +0.000 HD
ENDBRANCH  19  21
ENDBRANCH  18  19
ENDBRANCH  17  18
ENDBRANCH  12  17
ENDBRANCH   6   9
BRANCH   1  23
ATOM     23  C   UNL     1      -8.429 -43.979  29.739  0.00  0.00    +0.000 C 
BRANCH  23  24
ATOM     24  N   UNL     1      -8.500 -43.993  31.128  0.00  0.00    +0.000 NA
ATOM     25  C   UNL     1      -7.602 -44.809  31.858  0.00  0.00    +0.000 C 
BRANCH  24  26
ATOM     26  C   UNL     1      -8.904 -42.851  31.852  0.00  0.00    +0.000 C 
BRANCH  26  27
ATOM     27  C   UNL     1     -10.083 -43.295  32.737  0.00  0.00    +0.000 C 
BRANCH  27  28
ATOM     28  C   UNL     1     -10.969 -42.163  33.130  0.00  0.00    +0.000 C 
BRANCH  28  29
ATOM     29  C   UNL     1     -10.424 -41.624  34.462  0.00  0.00    +0.000 C 
BRANCH  29  30
ATOM     30  N   UNL     1     -11.372 -40.719  35.088  0.00  0.00    +0.000 NA
ATOM     31  H   UNL     1     -11.007 -40.276  35.953  0.00  0.00    +0.000 HD
ATOM     32  H   UNL     1     -11.655 -39.972  34.405  0.00  0.00    +0.000 HD
ENDBRANCH  29  30
ENDBRANCH  28  29
ENDBRANCH  27  28
ENDBRANCH  26  27
ENDBRANCH  24  26
ENDBRANCH  23  24
ENDBRANCH   1  23
TORSDOF 13
ENDMDL
