MODEL 1
REMARK VINA RESULT:    -8.652      0.000      0.000
REMARK INTER + INTRA:         -11.165
REMARK INTER:                 -10.928
REMARK INTRA:                  -0.236
REMARK UNBOUND:                -0.236
REMARK  Name = 
REMARK  6 active torsions:
REMARK  status: ('A' for Active; 'I' for Inactive)
REMARK    1  A    between atoms: C_1  and  C_13
REMARK    2  A    between atoms: C_3  and  C_8
REMARK    3  A    between atoms: C_5  and  C_7
REMARK    4  A    between atoms: C_8  and  C_9
REMARK    5  A    between atoms: C_9  and  C_10
REMARK    6  A    between atoms: C_10  and  O_12
REMARK                            x       y       z     vdW  Elec       q    Type
REMARK                         _______ _______ _______ _____ _____    ______ ____
ROOT
ATOM      1  C   UNL     1     -10.438 -44.391  30.077  0.00  0.00    +0.000 A 
ATOM      2  N   UNL     1     -10.947 -43.735  29.037  0.00  0.00    +0.000 NA
ATOM      3  C   UNL     1     -12.280 -43.655  28.810  0.00  0.00    +0.000 A 
ATOM      4  C   UNL     1     -13.163 -44.285  29.695  0.00  0.00    +0.000 A 
ATOM      5  C   UNL     1     -12.644 -44.965  30.772  0.00  0.00    +0.000 A 
ATOM      6  N   UNL     1     -11.309 -44.987  30.913  0.00  0.00    +0.000 NA
ATOM      7  C   UNL     1     -13.567 -45.642  31.726  0.00  0.00    +0.000 C 
ENDROOT
BRANCH   1   8
ATOM      8  C   UNL     1      -9.003 -44.508  30.383  0.00  0.00    +0.000 C 
ATOM      9  N   UNL     1      -8.554 -43.933  31.599  0.00  0.00    +0.000 N 
ATOM     10  C   UNL     1      -9.148 -43.065  32.551  0.00  0.00    +0.000 A 
ATOM     11  N   UNL     1     -10.370 -42.587  32.329  0.00  0.00    +0.000 NA
ATOM     12  C   UNL     1     -10.969 -41.746  33.221  0.00  0.00    +0.000 A 
ATOM     13  C   UNL     1     -10.336 -41.359  34.386  0.00  0.00    +0.000 A 
ATOM     14  C   UNL     1      -9.077 -41.868  34.586  0.00  0.00    +0.000 A 
ATOM     15  N   UNL     1      -8.521 -42.691  33.687  0.00  0.00    +0.000 NA
ATOM     16  C   UNL     1      -7.185 -44.421  31.754  0.00  0.00    +0.000 C 
ATOM     17  C   UNL     1      -7.361 -45.881  31.397  0.00  0.00    +0.000 C 
ATOM     18  C   UNL     1      -8.554 -45.949  30.484  0.00  0.00    +0.000 C 
ENDBRANCH   1   8
BRANCH   3  19
ATOM     19  C   UNL     1     -12.873 -42.926  27.666  0.00  0.00    +0.000 C 
BRANCH  19  20
ATOM     20  C   UNL     1     -14.019 -43.724  27.064  0.00  0.00    +0.000 C 
BRANCH  20  21
ATOM     21  C   UNL     1     -15.155 -42.841  26.704  0.00  0.00    +0.000 C 
ATOM     22  O   UNL     1     -15.604 -42.727  25.533  0.00  0.00    +0.000 OA
BRANCH  21  23
ATOM     23  O   UNL     1     -15.738 -42.113  27.729  0.00  0.00    +0.000 OA
ATOM     24  H   UNL     1     -16.656 -42.351  28.104  0.00  0.00    +0.000 HD
ENDBRANCH  21  23
ENDBRANCH  20  21
ENDBRANCH  19  20
ENDBRANCH   3  19
TORSDOF 5
ENDMDL
