MODEL 1
REMARK VINA RESULT:    -9.735      0.000      0.000
REMARK INTER + INTRA:         -16.969
REMARK INTER:                 -16.279
REMARK INTRA:                  -0.690
REMARK UNBOUND:                -0.690
REMARK  Name = 
REMARK  14 active torsions:
REMARK  status: ('A' for Active; 'I' for Inactive)
REMARK    1  A    between atoms: C_1  and  C_10
REMARK    2  A    between atoms: C_10  and  C_11
REMARK    3  A    between atoms: C_10  and  O_29
REMARK    4  A    between atoms: C_11  and  N_12
REMARK    5  A    between atoms: C_11  and  C_26
REMARK    6  A    between atoms: N_12  and  C_13
REMARK    7  A    between atoms: N_12  and  C_20
REMARK    8  A    between atoms: C_13  and  C_14
REMARK    9  A    between atoms: C_14  and  O_15
REMARK   10  A    between atoms: C_14  and  C_16
REMARK   11  A    between atoms: C_16  and  O_17
REMARK   12  A    between atoms: O_17  and  C_18
REMARK   13  A    between atoms: C_18  and  C_19
REMARK   14  A    between atoms: C_26  and  O_28
REMARK                            x       y       z     vdW  Elec       q    Type
REMARK                         _______ _______ _______ _____ _____    ______ ____
ROOT
ATOM      1  C   UNL     1     -12.325 -43.336  29.509  0.00  0.00    +0.000 C 
ENDROOT
BRANCH   1   2
ATOM      2  C   UNL     1     -11.452 -42.191  29.855  0.00  0.00    +0.000 C 
ATOM      3  O   UNL     1     -10.476 -41.931  29.118  0.00  0.00    +0.000 OA
BRANCH   2   4
ATOM      4  O   UNL     1     -11.633 -41.372  30.951  0.00  0.00    +0.000 OA
ATOM      5  H   UNL     1     -11.013 -40.594  31.136  0.00  0.00    +0.000 HD
ENDBRANCH   2   4
ENDBRANCH   1   2
BRANCH   1   6
ATOM      6  C   UNL     1     -12.084 -43.587  28.029  0.00  0.00    +0.000 C 
BRANCH   6   7
ATOM      7  C   UNL     1     -13.314 -43.155  27.296  0.00  0.00    +0.000 A 
ATOM      8  N   UNL     1     -13.469 -42.963  25.979  0.00  0.00    +0.000 NA
ATOM      9  C   UNL     1     -14.756 -42.568  25.739  0.00  0.00    +0.000 A 
ATOM     10  C   UNL     1     -15.382 -42.523  26.945  0.00  0.00    +0.000 A 
ATOM     11  N   UNL     1     -14.494 -42.884  27.896  0.00  0.00    +0.000 N 
ATOM     12  C   UNL     1     -16.713 -42.149  27.018  0.00  0.00    +0.000 A 
ATOM     13  C   UNL     1     -17.361 -41.828  25.848  0.00  0.00    +0.000 A 
ATOM     14  C   UNL     1     -16.726 -41.873  24.624  0.00  0.00    +0.000 A 
ATOM     15  C   UNL     1     -15.408 -42.245  24.563  0.00  0.00    +0.000 A 
ATOM     16  H   UNL     1     -14.735 -42.931  28.890  0.00  0.00    +0.000 HD
ENDBRANCH   6   7
BRANCH   6  17
ATOM     17  O   UNL     1     -11.844 -44.916  27.726  0.00  0.00    +0.000 OA
ATOM     18  H   UNL     1     -10.906 -45.124  27.569  0.00  0.00    +0.000 HD
ENDBRANCH   6  17
ENDBRANCH   1   6
BRANCH   1  19
ATOM     19  N   UNL     1     -12.115 -44.496  30.318  0.00  0.00    +0.000 N 
BRANCH  19  20
ATOM     20  C   UNL     1     -10.806 -44.808  30.772  0.00  0.00    +0.000 A 
ATOM     21  C   UNL     1     -10.178 -45.865  30.090  0.00  0.00    +0.000 A 
ATOM     22  C   UNL     1      -8.907 -46.267  30.438  0.00  0.00    +0.000 A 
ATOM     23  C   UNL     1      -8.227 -45.641  31.461  0.00  0.00    +0.000 A 
ATOM     24  C   UNL     1      -8.869 -44.610  32.108  0.00  0.00    +0.000 A 
ATOM     25  C   UNL     1     -10.134 -44.184  31.786  0.00  0.00    +0.000 A 
ENDBRANCH  19  20
BRANCH  19  26
ATOM     26  C   UNL     1     -13.193 -45.393  30.679  0.00  0.00    +0.000 C 
BRANCH  26  27
ATOM     27  C   UNL     1     -13.678 -45.253  32.093  0.00  0.00    +0.000 C 
BRANCH  27  28
ATOM     28  O   UNL     1     -14.585 -46.204  32.501  0.00  0.00    +0.000 OA
ATOM     29  H   UNL     1     -15.273 -45.929  33.116  0.00  0.00    +0.000 HD
ENDBRANCH  27  28
BRANCH  27  30
ATOM     30  C   UNL     1     -14.254 -43.876  32.295  0.00  0.00    +0.000 C 
BRANCH  30  31
ATOM     31  O   UNL     1     -13.488 -42.954  32.909  0.00  0.00    +0.000 OA
BRANCH  31  32
ATOM     32  C   UNL     1     -14.010 -42.192  33.912  0.00  0.00    +0.000 C 
ATOM     33  C   UNL     1     -15.037 -41.232  33.300  0.00  0.00    +0.000 C 
ENDBRANCH  31  32
ENDBRANCH  30  31
ENDBRANCH  27  30
ENDBRANCH  26  27
ENDBRANCH  19  26
ENDBRANCH   1  19
TORSDOF 13
ENDMDL
