MODEL 1
REMARK VINA RESULT:   -11.285      0.000      0.000
REMARK INTER + INTRA:         -17.548
REMARK INTER:                 -16.234
REMARK INTRA:                  -1.314
REMARK UNBOUND:                -1.314
REMARK  Name = 
REMARK  11 active torsions:
REMARK  status: ('A' for Active; 'I' for Inactive)
REMARK    1  A    between atoms: C_3  and  C_10
REMARK    2  A    between atoms: C_4  and  C_8
REMARK    3  A    between atoms: C_5  and  N_7
REMARK    4  A    between atoms: C_16  and  C_19
REMARK    5  A    between atoms: C_19  and  C_20
REMARK    6  A    between atoms: C_20  and  C_21
REMARK    7  A    between atoms: C_21  and  N_22
REMARK    8  A    between atoms: C_25  and  C_30
REMARK    9  A    between atoms: C_27  and  C_28
REMARK   10  A    between atoms: C_27  and  C_29
REMARK   11  A    between atoms: C_32  and  N_33
REMARK                            x       y       z     vdW  Elec       q    Type
REMARK                         _______ _______ _______ _____ _____    ______ ____
ROOT
ATOM      1  C   UNL     1     -12.530 -42.060  33.654  0.00  0.00    +0.000 A 
ATOM      2  C   UNL     1     -12.284 -42.957  32.597  0.00  0.00    +0.000 A 
ATOM      3  C   UNL     1     -10.934 -43.429  32.376  0.00  0.00    +0.000 C 
ATOM      4  C   UNL     1      -9.851 -42.694  33.043  0.00  0.00    +0.000 C 
ATOM      5  C   UNL     1     -10.160 -41.833  33.965  0.00  0.00    +0.000 C 
ATOM      6  O   UNL     1     -11.439 -41.504  34.327  0.00  0.00    +0.000 OA
ATOM      7  C   UNL     1     -13.526 -43.336  32.056  0.00  0.00    +0.000 A 
ATOM      8  N   UNL     1     -14.467 -42.701  32.774  0.00  0.00    +0.000 N 
ATOM      9  N   UNL     1     -13.880 -41.979  33.685  0.00  0.00    +0.000 NA
ATOM     10  H   UNL     1     -15.499 -42.773  32.641  0.00  0.00    +0.000 HD
ENDROOT
BRANCH   3  11
ATOM     11  C   UNL     1     -10.604 -44.233  31.178  0.00  0.00    +0.000 A 
ATOM     12  C   UNL     1     -10.409 -43.485  30.017  0.00  0.00    +0.000 A 
ATOM     13  C   UNL     1      -9.871 -44.278  28.853  0.00  0.00    +0.000 A 
ATOM     14  C   UNL     1      -9.679 -45.536  29.116  0.00  0.00    +0.000 A 
ATOM     15  C   UNL     1      -9.867 -46.277  30.210  0.00  0.00    +0.000 A 
ATOM     16  C   UNL     1     -10.385 -45.530  31.358  0.00  0.00    +0.000 A 
ENDBRANCH   3  11
BRANCH   5  17
ATOM     17  N   UNL     1      -9.029 -41.201  34.636  0.00  0.00    +0.000 N 
ATOM     18  H   UNL     1      -8.744 -40.217  34.420  0.00  0.00    +0.000 HD
ATOM     19  H   UNL     1      -8.535 -41.800  35.321  0.00  0.00    +0.000 HD
ENDBRANCH   5  17
BRANCH   4  20
ATOM     20  C   UNL     1      -8.560 -42.790  32.548  0.00  0.00    +0.000 C 
ATOM     21  N   UNL     1      -7.296 -42.892  32.068  0.00  0.00    +0.000 NA
ENDBRANCH   4  20
BRANCH   7  22
ATOM     22  C   UNL     1     -13.676 -44.160  30.822  0.00  0.00    +0.000 C 
BRANCH  22  23
ATOM     23  C   UNL     1     -13.857 -43.246  29.631  0.00  0.00    +0.000 C 
BRANCH  23  24
ATOM     24  C   UNL     1     -15.044 -43.641  28.759  0.00  0.00    +0.000 C 
BRANCH  24  25
ATOM     25  N   UNL     1     -15.101 -42.930  27.503  0.00  0.00    +0.000 N 
ATOM     26  C   UNL     1     -16.428 -42.422  27.171  0.00  0.00    +0.000 A 
ATOM     27  C   UNL     1     -16.711 -42.124  25.816  0.00  0.00    +0.000 A 
ATOM     28  C   UNL     1     -15.736 -42.343  24.733  0.00  0.00    +0.000 C 
ATOM     29  C   UNL     1     -14.522 -43.093  25.188  0.00  0.00    +0.000 C 
ATOM     30  C   UNL     1     -14.091 -42.598  26.587  0.00  0.00    +0.000 C 
ATOM     31  C   UNL     1     -12.706 -43.106  26.762  0.00  0.00    +0.000 C 
ATOM     32  C   UNL     1     -13.992 -41.042  26.425  0.00  0.00    +0.000 C 
ATOM     33  C   UNL     1     -16.429 -43.084  23.578  0.00  0.00    +0.000 C 
ATOM     34  C   UNL     1     -17.941 -41.589  25.506  0.00  0.00    +0.000 A 
ATOM     35  C   UNL     1     -18.893 -41.360  26.614  0.00  0.00    +0.000 A 
ATOM     36  C   UNL     1     -18.497 -41.695  27.796  0.00  0.00    +0.000 A 
ATOM     37  C   UNL     1     -17.314 -42.224  28.205  0.00  0.00    +0.000 A 
BRANCH  35  38
ATOM     38  N   UNL     1     -20.136 -40.815  26.173  0.00  0.00    +0.000 NA
ATOM     39  O   UNL     1     -20.856 -40.240  27.030  0.00  0.00    +0.000 OA
ENDBRANCH  35  38
ENDBRANCH  24  25
ENDBRANCH  23  24
ENDBRANCH  22  23
ENDBRANCH   7  22
TORSDOF 8
ENDMDL
