MODEL 1
REMARK VINA RESULT:    -9.462      0.000      0.000
REMARK INTER + INTRA:         -16.865
REMARK INTER:                 -15.270
REMARK INTRA:                  -1.595
REMARK UNBOUND:                -1.595
REMARK  Name = 
REMARK  13 active torsions:
REMARK  status: ('A' for Active; 'I' for Inactive)
REMARK    1  A    between atoms: N_1  and  C_19
REMARK    2  A    between atoms: C_2  and  C_10
REMARK    3  A    between atoms: C_10  and  N_11
REMARK    4  A    between atoms: C_12  and  C_14
REMARK    5  A    between atoms: C_14  and  C_15
REMARK    6  A    between atoms: C_15  and  C_16
REMARK    7  A    between atoms: C_16  and  O_18
REMARK    8  A    between atoms: C_19  and  C_20
REMARK    9  A    between atoms: C_20  and  N_21
REMARK   10  A    between atoms: C_23  and  C_24
REMARK   11  A    between atoms: C_24  and  N_25
REMARK   12  A    between atoms: N_25  and  C_26
REMARK   13  A    between atoms: N_25  and  C_27
REMARK                            x       y       z     vdW  Elec       q    Type
REMARK                         _______ _______ _______ _____ _____    ______ ____
ROOT
ATOM      1  N   UNL     1     -13.818 -44.232  28.339  0.00  0.00    +0.000 N 
ATOM      2  C   UNL     1     -14.608 -43.749  29.317  0.00  0.00    +0.000 A 
ATOM      3  C   UNL     1     -15.569 -42.917  28.788  0.00  0.00    +0.000 A 
ATOM      4  C   UNL     1     -15.358 -42.891  27.435  0.00  0.00    +0.000 A 
ATOM      5  C   UNL     1     -14.271 -43.709  27.172  0.00  0.00    +0.000 A 
ATOM      6  C   UNL     1     -13.825 -43.876  25.878  0.00  0.00    +0.000 A 
ATOM      7  C   UNL     1     -14.499 -43.205  24.877  0.00  0.00    +0.000 A 
ATOM      8  C   UNL     1     -15.583 -42.388  25.140  0.00  0.00    +0.000 A 
ATOM      9  C   UNL     1     -16.026 -42.222  26.428  0.00  0.00    +0.000 A 
ENDROOT
BRANCH   2  10
ATOM     10  C   UNL     1     -14.478 -44.051  30.766  0.00  0.00    +0.000 C 
BRANCH  10  11
ATOM     11  N   UNL     1     -13.724 -43.007  31.432  0.00  0.00    +0.000 N 
ATOM     12  C   UNL     1     -13.837 -42.934  32.861  0.00  0.00    +0.000 C 
ATOM     13  O   UNL     1     -14.564 -43.752  33.469  0.00  0.00    +0.000 OA
ATOM     14  H   UNL     1     -13.145 -42.369  30.867  0.00  0.00    +0.000 HD
BRANCH  12  15
ATOM     15  C   UNL     1     -13.057 -41.855  33.544  0.00  0.00    +0.000 C 
BRANCH  15  16
ATOM     16  C   UNL     1     -11.598 -42.142  33.250  0.00  0.00    +0.000 C 
BRANCH  16  17
ATOM     17  C   UNL     1     -10.799 -41.542  34.348  0.00  0.00    +0.000 C 
ATOM     18  O   UNL     1      -9.587 -41.888  34.572  0.00  0.00    +0.000 OA
BRANCH  17  19
ATOM     19  O   UNL     1     -11.378 -40.582  35.151  0.00  0.00    +0.000 OA
ATOM     20  H   UNL     1     -12.320 -40.262  34.953  0.00  0.00    +0.000 HD
ENDBRANCH  17  19
ENDBRANCH  16  17
ENDBRANCH  15  16
ENDBRANCH  12  15
ENDBRANCH  10  11
ENDBRANCH   2  10
BRANCH   1  21
ATOM     21  C   UNL     1     -12.705 -45.142  28.520  0.00  0.00    +0.000 C 
BRANCH  21  22
ATOM     22  C   UNL     1     -11.414 -44.399  28.373  0.00  0.00    +0.000 C 
BRANCH  22  23
ATOM     23  N   UNL     1     -11.214 -43.392  29.358  0.00  0.00    +0.000 NA
ATOM     24  C   UNL     1     -10.041 -43.676  30.162  0.00  0.00    +0.000 C 
ATOM     25  C   UNL     1      -8.784 -43.223  29.548  0.00  0.00    +0.000 C 
ATOM     26  C   UNL     1      -8.842 -41.807  29.018  0.00  0.00    +0.000 C 
ATOM     27  C   UNL     1     -10.025 -41.695  28.074  0.00  0.00    +0.000 C 
ATOM     28  C   UNL     1     -11.249 -42.039  28.891  0.00  0.00    +0.000 C 
BRANCH  25  29
ATOM     29  C   UNL     1      -7.503 -43.463  30.259  0.00  0.00    +0.000 C 
BRANCH  29  30
ATOM     30  N   UNL     1      -7.511 -43.946  31.575  0.00  0.00    +0.000 NA
ATOM     31  C   UNL     1      -7.081 -43.032  32.560  0.00  0.00    +0.000 C 
ATOM     32  C   UNL     1      -7.207 -45.320  31.776  0.00  0.00    +0.000 C 
ENDBRANCH  29  30
ENDBRANCH  25  29
ENDBRANCH  22  23
ENDBRANCH  21  22
ENDBRANCH   1  21
TORSDOF 11
ENDMDL
