MODEL 1
REMARK VINA RESULT:    -9.376      0.000      0.000
REMARK INTER + INTRA:         -15.747
REMARK INTER:                 -14.582
REMARK INTRA:                  -1.165
REMARK UNBOUND:                -1.165
REMARK  Name = 
REMARK  11 active torsions:
REMARK  status: ('A' for Active; 'I' for Inactive)
REMARK    1  A    between atoms: N_1  and  C_8
REMARK    2  A    between atoms: C_8  and  C_9
REMARK    3  A    between atoms: C_8  and  C_12
REMARK    4  A    between atoms: C_9  and  O_11
REMARK    5  A    between atoms: C_12  and  N_13
REMARK    6  A    between atoms: C_16  and  C_24
REMARK    7  A    between atoms: C_24  and  C_25
REMARK    8  A    between atoms: N_27  and  C_28
REMARK    9  A    between atoms: C_29  and  O_30
REMARK   10  A    between atoms: O_30  and  C_31
REMARK   11  A    between atoms: C_31  and  C_32
REMARK                            x       y       z     vdW  Elec       q    Type
REMARK                         _______ _______ _______ _____ _____    ______ ____
ROOT
ATOM      1  N   UNL     1     -11.862 -44.167  30.916  0.00  0.00    +0.000 N 
ATOM      2  C   UNL     1     -12.417 -44.875  29.779  0.00  0.00    +0.000 C 
ATOM      3  O   UNL     1     -11.856 -45.900  29.383  0.00  0.00    +0.000 OA
ATOM      4  C   UNL     1     -13.631 -44.326  29.154  0.00  0.00    +0.000 C 
ATOM      5  N   UNL     1     -14.647 -43.912  30.074  0.00  0.00    +0.000 NA
ATOM      6  C   UNL     1     -14.233 -43.854  31.443  0.00  0.00    +0.000 C 
ATOM      7  C   UNL     1     -12.819 -43.401  31.639  0.00  0.00    +0.000 C 
ATOM      8  C   UNL     1     -12.550 -43.213  33.085  0.00  0.00    +0.000 C 
ATOM      9  C   UNL     1     -13.298 -41.934  33.546  0.00  0.00    +0.000 C 
ATOM     10  C   UNL     1     -14.451 -41.672  32.632  0.00  0.00    +0.000 C 
ATOM     11  C   UNL     1     -15.152 -42.939  32.196  0.00  0.00    +0.000 C 
ATOM     12  H   UNL     1     -15.084 -43.019  29.733  0.00  0.00    +0.000 HD
ENDROOT
BRANCH   1  13
ATOM     13  C   UNL     1     -10.463 -44.172  31.178  0.00  0.00    +0.000 C 
BRANCH  13  14
ATOM     14  C   UNL     1      -9.699 -42.900  31.001  0.00  0.00    +0.000 C 
BRANCH  14  15
ATOM     15  N   UNL     1      -8.498 -43.003  31.894  0.00  0.00    +0.000 N 
ATOM     16  C   UNL     1      -8.443 -42.393  33.155  0.00  0.00    +0.000 C 
ATOM     17  S   UNL     1      -9.537 -41.522  33.942  0.00  0.00    +0.000 S 
ATOM     18  S   UNL     1      -6.830 -42.765  33.812  0.00  0.00    +0.000 S 
ATOM     19  C   UNL     1      -6.341 -43.964  32.549  0.00  0.00    +0.000 C 
ATOM     20  C   UNL     1      -7.364 -43.712  31.511  0.00  0.00    +0.000 C 
ATOM     21  O   UNL     1      -7.147 -44.166  30.310  0.00  0.00    +0.000 OA
ENDBRANCH  14  15
BRANCH  14  22
ATOM     22  C   UNL     1      -9.221 -42.515  29.700  0.00  0.00    +0.000 C 
ATOM     23  O   UNL     1      -9.616 -43.069  28.636  0.00  0.00    +0.000 OA
BRANCH  22  24
ATOM     24  O   UNL     1      -8.274 -41.482  29.492  0.00  0.00    +0.000 OA
ATOM     25  H   UNL     1      -7.730 -41.197  30.306  0.00  0.00    +0.000 HD
ENDBRANCH  22  24
ENDBRANCH  14  22
ENDBRANCH  13  14
ENDBRANCH   1  13
BRANCH   4  26
ATOM     26  C   UNL     1     -13.212 -43.171  28.297  0.00  0.00    +0.000 C 
BRANCH  26  27
ATOM     27  C   UNL     1     -13.937 -43.185  26.974  0.00  0.00    +0.000 C 
ATOM     28  O   UNL     1     -13.907 -44.171  26.234  0.00  0.00    +0.000 OA
ATOM     29  N   UNL     1     -14.647 -42.032  26.607  0.00  0.00    +0.000 N 
ATOM     30  H   UNL     1     -14.626 -41.222  27.319  0.00  0.00    +0.000 HD
BRANCH  29  31
ATOM     31  C   UNL     1     -15.379 -41.838  25.423  0.00  0.00    +0.000 A 
ATOM     32  C   UNL     1     -16.770 -42.053  25.408  0.00  0.00    +0.000 A 
ATOM     33  C   UNL     1     -17.505 -41.872  24.285  0.00  0.00    +0.000 A 
ATOM     34  C   UNL     1     -16.892 -41.458  23.088  0.00  0.00    +0.000 A 
ATOM     35  C   UNL     1     -15.549 -41.249  23.099  0.00  0.00    +0.000 A 
ATOM     36  C   UNL     1     -14.788 -41.426  24.218  0.00  0.00    +0.000 A 
BRANCH  32  37
ATOM     37  O   UNL     1     -17.289 -42.460  26.615  0.00  0.00    +0.000 OA
BRANCH  37  38
ATOM     38  C   UNL     1     -17.956 -41.770  27.590  0.00  0.00    +0.000 C 
ATOM     39  C   UNL     1     -17.556 -42.132  28.989  0.00  0.00    +0.000 C 
ENDBRANCH  37  38
ENDBRANCH  32  37
ENDBRANCH  29  31
ENDBRANCH  26  27
ENDBRANCH   4  26
TORSDOF 10
ENDMDL
