MODEL 1
REMARK VINA RESULT:    -9.554      0.000      0.000
REMARK INTER + INTRA:         -14.078
REMARK INTER:                 -13.464
REMARK INTRA:                  -0.614
REMARK UNBOUND:                -0.614
REMARK  Name = 
REMARK  9 active torsions:
REMARK  status: ('A' for Active; 'I' for Inactive)
REMARK    1  A    between atoms: C_1  and  C_2
REMARK    2  A    between atoms: C_10  and  C_11
REMARK    3  A    between atoms: C_15  and  N_16
REMARK    4  A    between atoms: C_19  and  C_32
REMARK    5  A    between atoms: C_24  and  C_25
REMARK    6  A    between atoms: C_25  and  O_27
REMARK    7  A    between atoms: O_27  and  C_28
REMARK    8  A    between atoms: C_28  and  C_29
REMARK    9  A    between atoms: C_32  and  C_33
REMARK                            x       y       z     vdW  Elec       q    Type
REMARK                         _______ _______ _______ _____ _____    ______ ____
ROOT
ATOM      1  N   UNL     1     -12.933 -44.042  29.323  0.00  0.00    +0.000 N 
ATOM      2  C   UNL     1     -13.910 -43.846  28.280  0.00  0.00    +0.000 C 
ATOM      3  O   UNL     1     -15.054 -43.509  28.599  0.00  0.00    +0.000 OA
ATOM      4  C   UNL     1     -13.457 -44.070  26.866  0.00  0.00    +0.000 C 
ATOM      5  O   UNL     1     -12.829 -45.334  26.834  0.00  0.00    +0.000 OA
ATOM      6  C   UNL     1     -11.828 -45.577  27.793  0.00  0.00    +0.000 A 
ATOM      7  C   UNL     1     -11.875 -44.938  29.032  0.00  0.00    +0.000 A 
ATOM      8  C   UNL     1     -10.861 -45.206  29.934  0.00  0.00    +0.000 A 
ATOM      9  C   UNL     1      -9.838 -46.084  29.606  0.00  0.00    +0.000 A 
ATOM     10  C   UNL     1      -9.811 -46.708  28.376  0.00  0.00    +0.000 A 
ATOM     11  C   UNL     1     -10.810 -46.457  27.457  0.00  0.00    +0.000 A 
ENDROOT
BRANCH   1  17
ATOM     12  C   UNL     1     -12.094 -42.444  30.972  0.00  0.00    +0.000 A 
ATOM     13  C   UNL     1     -12.250 -41.835  32.218  0.00  0.00    +0.000 A 
ATOM     14  C   UNL     1     -13.268 -42.116  33.068  0.00  0.00    +0.000 A 
ATOM     15  C   UNL     1     -14.206 -43.062  32.673  0.00  0.00    +0.000 A 
ATOM     16  C   UNL     1     -14.067 -43.669  31.452  0.00  0.00    +0.000 A 
ATOM     17  C   UNL     1     -13.013 -43.377  30.577  0.00  0.00    +0.000 A 
BRANCH  12  18
ATOM     18  C   UNL     1     -10.949 -42.071  30.138  0.00  0.00    +0.000 A 
ATOM     19  C   UNL     1      -9.690 -42.399  30.585  0.00  0.00    +0.000 A 
ATOM     20  C   UNL     1      -8.554 -42.100  29.862  0.00  0.00    +0.000 A 
ATOM     21  F   UNL     1      -7.334 -42.439  30.335  0.00  0.00    +0.000 F 
ATOM     22  C   UNL     1      -8.656 -41.455  28.656  0.00  0.00    +0.000 A 
ATOM     23  C   UNL     1      -9.908 -41.114  28.183  0.00  0.00    +0.000 A 
ATOM     24  C   UNL     1     -11.049 -41.433  28.941  0.00  0.00    +0.000 A 
ENDBRANCH  12  18
BRANCH  14  25
ATOM     25  C   UNL     1     -13.415 -41.457  34.385  0.00  0.00    +0.000 C 
ATOM     26  O   UNL     1     -14.473 -40.855  34.653  0.00  0.00    +0.000 OA
ENDBRANCH  14  25
ENDBRANCH   1  17
BRANCH   9  27
ATOM     27  C   UNL     1      -8.773 -46.343  30.568  0.00  0.00    +0.000 C 
ATOM     28  O   UNL     1      -8.829 -47.296  31.370  0.00  0.00    +0.000 OA
BRANCH  27  29
ATOM     29  O   UNL     1      -7.662 -45.520  30.613  0.00  0.00    +0.000 OA
BRANCH  29  30
ATOM     30  C   UNL     1      -6.759 -45.429  31.681  0.00  0.00    +0.000 C 
ATOM     31  C   UNL     1      -7.155 -44.236  32.528  0.00  0.00    +0.000 C 
ENDBRANCH  29  30
ENDBRANCH  27  29
ENDBRANCH   9  27
BRANCH   4  32
ATOM     32  C   UNL     1     -14.557 -44.026  25.874  0.00  0.00    +0.000 C 
ATOM     33  C   UNL     1     -14.262 -42.972  24.818  0.00  0.00    +0.000 C 
ENDBRANCH   4  32
TORSDOF 7
ENDMDL
