MODEL 1
REMARK VINA RESULT:   -10.966      0.000      0.000
REMARK INTER + INTRA:         -15.593
REMARK INTER:                 -15.133
REMARK INTRA:                  -0.460
REMARK UNBOUND:                -0.460
REMARK  Name = 
REMARK  10 active torsions:
REMARK  status: ('A' for Active; 'I' for Inactive)
REMARK    1  A    between atoms: C_2  and  S_29
REMARK    2  A    between atoms: C_3  and  C_12
REMARK    3  A    between atoms: C_7  and  C_11
REMARK    4  A    between atoms: C_12  and  C_13
REMARK    5  A    between atoms: C_13  and  C_14
REMARK    6  A    between atoms: C_14  and  N_15
REMARK    7  A    between atoms: C_14  and  N_19
REMARK    8  A    between atoms: C_14  and  C_23
REMARK    9  A    between atoms: C_16  and  C_18
REMARK   10  A    between atoms: C_20  and  C_22
REMARK                            x       y       z     vdW  Elec       q    Type
REMARK                         _______ _______ _______ _____ _____    ______ ____
ROOT
ATOM      1  C   UNL     1      -9.901 -44.096  31.432  0.00  0.00    +0.000 C 
ENDROOT
BRANCH   1   2
ATOM      2  C   UNL     1      -9.906 -43.199  30.275  0.00  0.00    +0.000 A 
ATOM      3  C   UNL     1     -10.855 -42.182  30.143  0.00  0.00    +0.000 A 
ATOM      4  C   UNL     1     -10.893 -41.347  29.052  0.00  0.00    +0.000 A 
ATOM      5  C   UNL     1      -9.963 -41.499  28.031  0.00  0.00    +0.000 A 
ATOM      6  C   UNL     1      -9.023 -42.497  28.145  0.00  0.00    +0.000 A 
ATOM      7  C   UNL     1      -9.005 -43.336  29.266  0.00  0.00    +0.000 A 
ENDBRANCH   1   2
BRANCH   1   8
ATOM      8  N   UNL     1      -8.536 -44.280  31.948  0.00  0.00    +0.000 N 
ATOM      9  C   UNL     1      -7.759 -45.375  31.545  0.00  0.00    +0.000 C 
ATOM     10  O   UNL     1      -8.120 -46.261  30.759  0.00  0.00    +0.000 OA
ATOM     11  C   UNL     1      -6.375 -45.491  32.112  0.00  0.00    +0.000 C 
ATOM     12  H   UNL     1      -8.103 -43.629  32.645  0.00  0.00    +0.000 HD
ENDBRANCH   1   8
BRANCH   1  13
ATOM     13  N   UNL     1     -10.502 -43.243  32.520  0.00  0.00    +0.000 N 
ATOM     14  C   UNL     1      -9.693 -42.449  33.348  0.00  0.00    +0.000 C 
ATOM     15  O   UNL     1      -8.459 -42.428  33.214  0.00  0.00    +0.000 OA
ATOM     16  C   UNL     1     -10.308 -41.591  34.438  0.00  0.00    +0.000 C 
ATOM     17  H   UNL     1     -11.518 -43.247  32.652  0.00  0.00    +0.000 HD
ENDBRANCH   1  13
BRANCH   1  18
ATOM     18  C   UNL     1     -10.594 -45.367  31.365  0.00  0.00    +0.000 C 
BRANCH  18  19
ATOM     19  C   UNL     1     -12.038 -45.538  31.351  0.00  0.00    +0.000 C 
BRANCH  19  22
ATOM     20  N   UNL     1     -14.679 -43.440  29.713  0.00  0.00    +0.000 NA
ATOM     21  C   UNL     1     -13.946 -44.010  30.701  0.00  0.00    +0.000 A 
ATOM     22  C   UNL     1     -12.913 -44.841  30.409  0.00  0.00    +0.000 A 
ATOM     23  C   UNL     1     -12.663 -45.062  29.025  0.00  0.00    +0.000 A 
ATOM     24  C   UNL     1     -13.410 -44.479  28.036  0.00  0.00    +0.000 A 
ATOM     25  C   UNL     1     -14.456 -43.640  28.387  0.00  0.00    +0.000 A 
ATOM     26  C   UNL     1     -15.221 -43.027  27.431  0.00  0.00    +0.000 A 
ATOM     27  C   UNL     1     -14.949 -43.255  26.084  0.00  0.00    +0.000 A 
ATOM     28  C   UNL     1     -13.922 -44.085  25.711  0.00  0.00    +0.000 A 
ATOM     29  C   UNL     1     -13.169 -44.684  26.695  0.00  0.00    +0.000 A 
ATOM     30  C   UNL     1     -16.323 -42.120  27.830  0.00  0.00    +0.000 C 
BRANCH  21  31
ATOM     31  S   UNL     1     -14.362 -43.585  32.409  0.00  0.00    +0.000 S 
ATOM     32  H   UNL     1     -13.137 -43.133  32.987  0.00  0.00    +0.000 HD
ENDBRANCH  21  31
ENDBRANCH  19  22
ENDBRANCH  18  19
ENDBRANCH   1  18
TORSDOF 7
ENDMDL
