MODEL 1
REMARK VINA RESULT:    -9.340      0.000      0.000
REMARK INTER + INTRA:         -12.142
REMARK INTER:                 -11.524
REMARK INTRA:                  -0.618
REMARK UNBOUND:                -0.618
REMARK  Name = 
REMARK  7 active torsions:
REMARK  status: ('A' for Active; 'I' for Inactive)
REMARK    1  A    between atoms: C_3  and  C_10
REMARK    2  A    between atoms: C_4  and  C_8
REMARK    3  A    between atoms: C_5  and  N_7
REMARK    4  A    between atoms: C_13  and  O_18
REMARK    5  A    between atoms: C_14  and  O_16
REMARK    6  A    between atoms: O_16  and  C_17
REMARK    7  A    between atoms: C_20  and  C_23
REMARK                            x       y       z     vdW  Elec       q    Type
REMARK                         _______ _______ _______ _____ _____    ______ ____
ROOT
ATOM      1  C   UNL     1      -8.394 -42.427  33.729  0.00  0.00    +0.000 A 
ATOM      2  C   UNL     1      -8.965 -43.197  32.762  0.00  0.00    +0.000 A 
ATOM      3  C   UNL     1     -10.417 -43.167  32.536  0.00  0.00    +0.000 C 
ATOM      4  C   UNL     1     -11.119 -42.259  33.422  0.00  0.00    +0.000 C 
ATOM      5  C   UNL     1     -10.517 -41.540  34.336  0.00  0.00    +0.000 C 
ATOM      6  O   UNL     1      -9.149 -41.568  34.554  0.00  0.00    +0.000 OA
ATOM      7  C   UNL     1      -7.945 -43.922  32.134  0.00  0.00    +0.000 A 
ATOM      8  N   UNL     1      -6.809 -43.565  32.741  0.00  0.00    +0.000 NA
ATOM      9  N   UNL     1      -7.061 -42.683  33.686  0.00  0.00    +0.000 N 
ATOM     10  C   UNL     1      -8.164 -44.883  31.016  0.00  0.00    +0.000 C 
ATOM     11  H   UNL     1      -6.393 -42.212  34.337  0.00  0.00    +0.000 HD
ENDROOT
BRANCH   3  12
ATOM     12  C   UNL     1     -10.791 -43.003  31.109  0.00  0.00    +0.000 A 
ATOM     13  C   UNL     1     -11.810 -43.784  30.609  0.00  0.00    +0.000 A 
ATOM     14  C   UNL     1     -12.254 -43.715  29.315  0.00  0.00    +0.000 A 
ATOM     15  C   UNL     1     -11.633 -42.810  28.488  0.00  0.00    +0.000 A 
ATOM     16  C   UNL     1     -10.605 -42.004  28.944  0.00  0.00    +0.000 A 
ATOM     17  C   UNL     1     -10.208 -42.123  30.250  0.00  0.00    +0.000 A 
ATOM     18 CL   UNL     1     -13.564 -44.744  28.729  0.00  0.00    +0.000 Cl
BRANCH  16  19
ATOM     19  O   UNL     1     -10.059 -41.136  28.024  0.00  0.00    +0.000 OA
ATOM     20  C   UNL     1      -8.799 -41.273  27.410  0.00  0.00    +0.000 C 
ENDBRANCH  16  19
BRANCH  15  21
ATOM     21  O   UNL     1     -12.062 -42.713  27.159  0.00  0.00    +0.000 OA
ATOM     22  H   UNL     1     -12.315 -41.832  26.755  0.00  0.00    +0.000 HD
ENDBRANCH  15  21
ENDBRANCH   3  12
BRANCH   5  23
ATOM     23  N   UNL     1     -11.253 -40.650  35.199  0.00  0.00    +0.000 N 
ATOM     24  H   UNL     1     -12.208 -40.865  35.514  0.00  0.00    +0.000 HD
ATOM     25  H   UNL     1     -10.785 -39.769  35.499  0.00  0.00    +0.000 HD
ENDBRANCH   5  23
BRANCH   4  26
ATOM     26  C   UNL     1     -12.569 -42.090  33.328  0.00  0.00    +0.000 C 
ATOM     27  N   UNL     1     -13.712 -41.948  33.258  0.00  0.00    +0.000 NA
ENDBRANCH   4  26
TORSDOF 5
ENDMDL
