MODEL 1
REMARK VINA RESULT:    -9.969      0.000      0.000
REMARK INTER + INTRA:         -14.963
REMARK INTER:                 -13.758
REMARK INTRA:                  -1.206
REMARK UNBOUND:                -1.206
REMARK  Name = 
REMARK  8 active torsions:
REMARK  status: ('A' for Active; 'I' for Inactive)
REMARK    1  A    between atoms: N_3  and  C_13
REMARK    2  A    between atoms: C_9  and  C_12
REMARK    3  A    between atoms: C_13  and  C_14
REMARK    4  A    between atoms: C_14  and  C_15
REMARK    5  A    between atoms: C_15  and  N_16
REMARK    6  A    between atoms: C_17  and  C_18
REMARK    7  A    between atoms: C_18  and  O_20
REMARK    8  A    between atoms: C_23  and  C_24
REMARK                            x       y       z     vdW  Elec       q    Type
REMARK                         _______ _______ _______ _____ _____    ______ ____
ROOT
ATOM      1  C   UNL     1     -11.975 -44.517  27.912  0.00  0.00    +0.000 C 
ENDROOT
BRANCH   1   2
ATOM      2  N   UNL     1     -11.422 -44.244  29.227  0.00  0.00    +0.000 NA
ATOM      3  C   UNL     1     -10.058 -43.932  29.053  0.00  0.00    +0.000 C 
ATOM      4  C   UNL     1      -9.283 -44.051  30.334  0.00  0.00    +0.000 C 
ATOM      5  S   UNL     1     -10.069 -45.551  30.996  0.00  0.00    +0.000 S 
ATOM      6  C   UNL     1     -11.661 -45.282  30.157  0.00  0.00    +0.000 C 
BRANCH   6   7
ATOM      7  C   UNL     1     -12.609 -44.773  31.197  0.00  0.00    +0.000 A 
ATOM      8  S   UNL     1     -12.788 -43.176  31.821  0.00  0.00    +0.000 S 
ATOM      9  C   UNL     1     -14.142 -43.506  33.009  0.00  0.00    +0.000 A 
ATOM     10  C   UNL     1     -14.313 -44.871  32.782  0.00  0.00    +0.000 A 
ATOM     11  C   UNL     1     -13.568 -45.496  31.899  0.00  0.00    +0.000 A 
ENDBRANCH   6   7
BRANCH   3  12
ATOM     12  C   UNL     1      -9.935 -42.559  28.481  0.00  0.00    +0.000 C 
ATOM     13  O   UNL     1      -9.078 -42.329  27.596  0.00  0.00    +0.000 OA
BRANCH  12  14
ATOM     14  O   UNL     1     -10.740 -41.503  28.892  0.00  0.00    +0.000 OA
ATOM     15  H   UNL     1     -11.457 -41.164  28.268  0.00  0.00    +0.000 HD
ENDBRANCH  12  14
ENDBRANCH   3  12
ENDBRANCH   1   2
BRANCH   1  16
ATOM     16  C   UNL     1     -13.438 -44.294  27.811  0.00  0.00    +0.000 C 
BRANCH  16  17
ATOM     17  C   UNL     1     -13.661 -42.797  27.683  0.00  0.00    +0.000 C 
BRANCH  17  20
ATOM     18  C   UNL     1     -14.484 -42.586  25.245  0.00  0.00    +0.000 C 
ATOM     19  O   UNL     1     -13.433 -42.847  24.633  0.00  0.00    +0.000 OA
ATOM     20  N   UNL     1     -14.667 -42.543  26.643  0.00  0.00    +0.000 N 
ATOM     21  C   UNL     1     -16.026 -42.205  26.881  0.00  0.00    +0.000 A 
ATOM     22  C   UNL     1     -16.725 -42.029  25.712  0.00  0.00    +0.000 A 
ATOM     23  C   UNL     1     -15.764 -42.267  24.623  0.00  0.00    +0.000 C 
ATOM     24  O   UNL     1     -16.072 -42.187  23.407  0.00  0.00    +0.000 OA
ATOM     25  C   UNL     1     -18.066 -41.695  25.694  0.00  0.00    +0.000 A 
ATOM     26  C   UNL     1     -18.769 -41.522  26.862  0.00  0.00    +0.000 A 
ATOM     27  C   UNL     1     -18.087 -41.694  28.048  0.00  0.00    +0.000 A 
ATOM     28  C   UNL     1     -16.749 -42.028  28.068  0.00  0.00    +0.000 A 
ATOM     29  C   UNL     1     -20.230 -41.158  26.859  0.00  0.00    +0.000 C 
ENDBRANCH  17  20
ENDBRANCH  16  17
ENDBRANCH   1  16
TORSDOF 7
ENDMDL
