MODEL 1
REMARK VINA RESULT:    -8.778      0.000      0.000
REMARK INTER + INTRA:         -13.193
REMARK INTER:                 -12.114
REMARK INTRA:                  -1.079
REMARK UNBOUND:                -1.079
REMARK  Name = 
REMARK  10 active torsions:
REMARK  status: ('A' for Active; 'I' for Inactive)
REMARK    1  A    between atoms: C_10  and  C_12
REMARK    2  A    between atoms: C_10  and  C_19
REMARK    3  A    between atoms: C_15  and  C_18
REMARK    4  A    between atoms: C_19  and  C_20
REMARK    5  A    between atoms: C_20  and  C_36
REMARK    6  A    between atoms: C_23  and  C_25
REMARK    7  A    between atoms: C_25  and  C_26
REMARK    8  A    between atoms: C_30  and  C_31
REMARK    9  A    between atoms: N_34  and  C_35
REMARK   10  A    between atoms: C_36  and  O_38
REMARK                            x       y       z     vdW  Elec       q    Type
REMARK                         _______ _______ _______ _____ _____    ______ ____
ROOT
ATOM      1  C   UNL     1     -19.616 -41.445  23.763  0.00  0.00    +0.000 C 
ENDROOT
BRANCH   1  11
ATOM      2  C   UNL     1     -21.171 -41.093  25.898  0.00  0.00    +0.000 A 
ATOM      3  C   UNL     1     -21.193 -42.438  25.609  0.00  0.00    +0.000 A 
ATOM      4  C   UNL     1     -22.390 -43.115  25.393  0.00  0.00    +0.000 A 
ATOM      5  O   UNL     1     -22.359 -44.336  25.131  0.00  0.00    +0.000 OA
ATOM      6  N   UNL     1     -23.545 -42.420  25.473  0.00  0.00    +0.000 N 
ATOM      7  C   UNL     1     -23.504 -41.117  25.756  0.00  0.00    +0.000 A 
ATOM      8  O   UNL     1     -24.612 -40.487  25.828  0.00  0.00    +0.000 OA
ATOM      9  N   UNL     1     -22.330 -40.440  25.971  0.00  0.00    +0.000 N 
ATOM     10  C   UNL     1     -19.777 -42.872  25.653  0.00  0.00    +0.000 C 
ATOM     11  C   UNL     1     -19.097 -41.540  25.106  0.00  0.00    +0.000 C 
ATOM     12  O   UNL     1     -19.829 -40.704  26.054  0.00  0.00    +0.000 OA
ATOM     13  H   UNL     1     -24.439 -42.931  25.312  0.00  0.00    +0.000 HD
ATOM     14  H   UNL     1     -22.400 -39.442  26.179  0.00  0.00    +0.000 HD
BRANCH  11  15
ATOM     15  C   UNL     1     -17.692 -41.691  25.463  0.00  0.00    +0.000 C 
ATOM     16  C   UNL     1     -17.440 -42.101  26.889  0.00  0.00    +0.000 C 
ATOM     17  C   UNL     1     -16.017 -42.134  27.206  0.00  0.00    +0.000 C 
ATOM     18  C   UNL     1     -15.066 -42.219  26.305  0.00  0.00    +0.000 C 
ATOM     19  C   UNL     1     -15.346 -42.289  24.873  0.00  0.00    +0.000 C 
ATOM     20  C   UNL     1     -16.827 -42.532  24.536  0.00  0.00    +0.000 C 
ATOM     21  C   UNL     1     -13.658 -42.259  26.749  0.00  0.00    +0.000 C 
ENDBRANCH  11  15
ENDBRANCH   1  11
BRANCH   1  22
ATOM     22  C   UNL     1     -19.748 -40.393  22.774  0.00  0.00    +0.000 C 
ATOM     23  C   UNL     1     -20.410 -39.097  23.108  0.00  0.00    +0.000 C 
ATOM     24  N   UNL     1     -20.839 -38.494  21.814  0.00  0.00    +0.000 N 
ATOM     25  C   UNL     1     -22.133 -37.989  21.665  0.00  0.00    +0.000 C 
ATOM     26  O   UNL     1     -22.874 -37.895  22.725  0.00  0.00    +0.000 OA
ATOM     27  C   UNL     1     -19.856 -38.367  20.786  0.00  0.00    +0.000 C 
ATOM     28  C   UNL     1     -19.144 -39.653  20.531  0.00  0.00    +0.000 C 
ATOM     29  N   UNL     1     -18.763 -40.272  21.759  0.00  0.00    +0.000 NA
ATOM     30  C   UNL     1     -17.448 -39.836  22.101  0.00  0.00    +0.000 C 
BRANCH  22  31
ATOM     31  C   UNL     1     -20.928 -41.029  21.898  0.00  0.00    +0.000 C 
ATOM     32  O   UNL     1     -20.658 -41.606  20.858  0.00  0.00    +0.000 OA
BRANCH  31  33
ATOM     33  O   UNL     1     -22.213 -40.904  22.345  0.00  0.00    +0.000 OA
ATOM     34  H   UNL     1     -22.562 -40.090  22.850  0.00  0.00    +0.000 HD
ENDBRANCH  31  33
ENDBRANCH  22  31
BRANCH  25  35
ATOM     35  C   UNL     1     -22.783 -37.548  20.431  0.00  0.00    +0.000 C 
BRANCH  35  36
ATOM     36  C   UNL     1     -23.202 -38.613  19.530  0.00  0.00    +0.000 A 
ATOM     37  N   UNL     1     -23.809 -39.755  19.955  0.00  0.00    +0.000 NA
ATOM     38  O   UNL     1     -24.138 -40.441  18.879  0.00  0.00    +0.000 OA
ATOM     39  N   UNL     1     -23.789 -39.829  17.804  0.00  0.00    +0.000 NA
ATOM     40  C   UNL     1     -23.199 -38.682  18.171  0.00  0.00    +0.000 A 
ATOM     41  C   UNL     1     -22.587 -37.753  17.184  0.00  0.00    +0.000 C 
ENDBRANCH  35  36
ENDBRANCH  25  35
ENDBRANCH   1  22
TORSDOF 7
ENDMDL
