MODEL 1
REMARK VINA RESULT:   -11.755      0.000      0.000
REMARK INTER + INTRA:         -16.956
REMARK INTER:                 -16.222
REMARK INTRA:                  -0.733
REMARK UNBOUND:                -0.733
REMARK  Name = 
REMARK  8 active torsions:
REMARK  status: ('A' for Active; 'I' for Inactive)
REMARK    1  A    between atoms: C_4  and  C_7
REMARK    2  A    between atoms: C_5  and  C_6
REMARK    3  A    between atoms: C_7  and  O_9
REMARK    4  A    between atoms: N_12  and  C_15
REMARK    5  A    between atoms: C_15  and  C_16
REMARK    6  A    between atoms: C_16  and  C_17
REMARK    7  A    between atoms: C_17  and  N_18
REMARK    8  A    between atoms: C_19  and  C_31
REMARK                            x       y       z     vdW  Elec       q    Type
REMARK                         _______ _______ _______ _____ _____    ______ ____
ROOT
ATOM      1  N   UNL     1     -10.837 -43.037  29.713  0.00  0.00    +0.000 N 
ATOM      2  C   UNL     1     -10.720 -42.437  31.022  0.00  0.00    +0.000 C 
ATOM      3  C   UNL     1      -9.521 -42.917  31.774  0.00  0.00    +0.000 C 
ATOM      4  C   UNL     1      -9.410 -44.397  31.866  0.00  0.00    +0.000 C 
ATOM      5  C   UNL     1      -9.615 -45.018  30.554  0.00  0.00    +0.000 A 
ATOM      6  C   UNL     1     -10.296 -44.356  29.562  0.00  0.00    +0.000 A 
ATOM      7  C   UNL     1     -10.470 -44.996  28.359  0.00  0.00    +0.000 A 
ATOM      8  C   UNL     1     -10.001 -46.273  28.073  0.00  0.00    +0.000 A 
ATOM      9  C   UNL     1      -9.319 -46.927  29.077  0.00  0.00    +0.000 A 
ATOM     10  C   UNL     1      -9.134 -46.306  30.288  0.00  0.00    +0.000 A 
ATOM     11  C   UNL     1      -7.974 -44.591  32.215  0.00  0.00    +0.000 C 
ATOM     12  C   UNL     1      -7.287 -43.541  31.834  0.00  0.00    +0.000 C 
ATOM     13  C   UNL     1      -8.199 -42.527  31.186  0.00  0.00    +0.000 C 
ENDROOT
BRANCH   2  14
ATOM     14  C   UNL     1     -11.903 -42.557  31.872  0.00  0.00    +0.000 A 
ATOM     15  C   UNL     1     -12.991 -43.346  31.576  0.00  0.00    +0.000 A 
ATOM     16  C   UNL     1     -14.086 -43.420  32.431  0.00  0.00    +0.000 A 
ATOM     17  C   UNL     1     -14.111 -42.703  33.605  0.00  0.00    +0.000 A 
ATOM     18  C   UNL     1     -13.040 -41.912  33.922  0.00  0.00    +0.000 A 
ATOM     19  C   UNL     1     -11.967 -41.843  33.076  0.00  0.00    +0.000 A 
ATOM     20  F   UNL     1     -15.168 -42.760  34.457  0.00  0.00    +0.000 F 
ENDBRANCH   2  14
BRANCH   1  21
ATOM     21  C   UNL     1     -11.491 -42.291  28.664  0.00  0.00    +0.000 C 
BRANCH  21  22
ATOM     22  C   UNL     1     -12.379 -43.155  27.816  0.00  0.00    +0.000 C 
BRANCH  22  23
ATOM     23  C   UNL     1     -13.830 -42.953  27.927  0.00  0.00    +0.000 C 
BRANCH  23  32
ATOM     24  C   UNL     1     -16.550 -42.190  25.417  0.00  0.00    +0.000 A 
ATOM     25  C   UNL     1     -15.797 -42.448  24.302  0.00  0.00    +0.000 A 
ATOM     26  S   UNL     1     -16.951 -42.125  22.963  0.00  0.00    +0.000 S 
ATOM     27  C   UNL     1     -18.306 -41.685  23.973  0.00  0.00    +0.000 A 
ATOM     28  C   UNL     1     -17.832 -41.801  25.214  0.00  0.00    +0.000 A 
ATOM     29  C   UNL     1     -18.749 -41.515  26.397  0.00  0.00    +0.000 C 
ATOM     30  N   UNL     1     -14.500 -42.842  24.316  0.00  0.00    +0.000 NA
ATOM     31  C   UNL     1     -13.872 -43.003  25.499  0.00  0.00    +0.000 A 
ATOM     32  N   UNL     1     -14.537 -42.770  26.642  0.00  0.00    +0.000 N 
ATOM     33  C   UNL     1     -15.806 -42.384  26.610  0.00  0.00    +0.000 A 
ATOM     34  O   UNL     1     -16.366 -42.181  27.721  0.00  0.00    +0.000 OA
BRANCH  27  35
ATOM     35  C   UNL     1     -19.605 -41.292  23.446  0.00  0.00    +0.000 C 
ATOM     36  O   UNL     1     -20.022 -40.146  23.398  0.00  0.00    +0.000 OA
BRANCH  35  37
ATOM     37  O   UNL     1     -20.457 -42.277  22.953  0.00  0.00    +0.000 OA
ATOM     38  H   UNL     1     -20.356 -42.624  21.987  0.00  0.00    +0.000 HD
ENDBRANCH  35  37
ENDBRANCH  27  35
ENDBRANCH  23  32
ENDBRANCH  22  23
ENDBRANCH  21  22
ENDBRANCH   1  21
TORSDOF 7
ENDMDL
