MODEL 1
REMARK VINA RESULT:    -9.014      0.000      0.000
REMARK INTER + INTRA:         -12.339
REMARK INTER:                 -11.912
REMARK INTRA:                  -0.427
REMARK UNBOUND:                -0.427
REMARK  Name = 
REMARK  9 active torsions:
REMARK  status: ('A' for Active; 'I' for Inactive)
REMARK    1  A    between atoms: C_1  and  C_24
REMARK    2  A    between atoms: C_2  and  C_23
REMARK    3  A    between atoms: C_4  and  N_22
REMARK    4  A    between atoms: C_5  and  C_20
REMARK    5  A    between atoms: C_6  and  C_7
REMARK    6  A    between atoms: C_14  and  O_17
REMARK    7  A    between atoms: O_17  and  C_18
REMARK    8  A    between atoms: C_24  and  O_26
REMARK    9  A    between atoms: O_26  and  C_27
REMARK                            x       y       z     vdW  Elec       q    Type
REMARK                         _______ _______ _______ _____ _____    ______ ____
ROOT
ATOM      1  C   UNL     1      -8.998 -42.542  31.274  0.00  0.00    +0.000 C 
ATOM      2  C   UNL     1      -8.312 -42.650  32.385  0.00  0.00    +0.000 C 
ATOM      3  O   UNL     1      -8.991 -42.509  33.582  0.00  0.00    +0.000 OA
ATOM      4  C   UNL     1     -10.329 -42.271  33.628  0.00  0.00    +0.000 C 
ATOM      5  C   UNL     1     -11.081 -42.148  32.543  0.00  0.00    +0.000 C 
ATOM      6  C   UNL     1     -10.449 -42.264  31.221  0.00  0.00    +0.000 C 
ATOM      7  C   UNL     1      -6.819 -42.918  32.409  0.00  0.00    +0.000 C 
ENDROOT
BRANCH   6   8
ATOM      8  C   UNL     1     -11.166 -43.130  30.261  0.00  0.00    +0.000 A 
ATOM      9  C   UNL     1     -11.122 -44.480  30.267  0.00  0.00    +0.000 A 
ATOM     10  N   UNL     1     -11.687 -45.257  29.302  0.00  0.00    +0.000 NA
ATOM     11  C   UNL     1     -12.338 -44.677  28.265  0.00  0.00    +0.000 A 
ATOM     12  C   UNL     1     -12.417 -43.315  28.206  0.00  0.00    +0.000 A 
ATOM     13  C   UNL     1     -11.829 -42.520  29.212  0.00  0.00    +0.000 A 
ATOM     14  C   UNL     1     -13.051 -42.663  27.175  0.00  0.00    +0.000 A 
ATOM     15  C   UNL     1     -13.640 -43.407  26.142  0.00  0.00    +0.000 A 
ATOM     16  C   UNL     1     -13.535 -44.816  26.248  0.00  0.00    +0.000 A 
ATOM     17  C   UNL     1     -12.909 -45.458  27.269  0.00  0.00    +0.000 A 
ATOM     18 CL   UNL     1     -10.400 -45.352  31.612  0.00  0.00    +0.000 Cl
BRANCH  15  19
ATOM     19  O   UNL     1     -14.225 -42.798  25.169  0.00  0.00    +0.000 OA
ATOM     20  C   UNL     1     -14.683 -41.828  24.450  0.00  0.00    +0.000 C 
ENDBRANCH  15  19
ENDBRANCH   6   8
BRANCH   4  21
ATOM     21  N   UNL     1     -10.912 -42.152  34.940  0.00  0.00    +0.000 N 
ATOM     22  H   UNL     1     -10.338 -42.444  35.741  0.00  0.00    +0.000 HD
ATOM     23  H   UNL     1     -11.871 -41.795  35.089  0.00  0.00    +0.000 HD
ENDBRANCH   4  21
BRANCH   5  24
ATOM     24  C   UNL     1     -12.467 -41.979  32.764  0.00  0.00    +0.000 C 
ATOM     25  N   UNL     1     -13.633 -41.834  32.971  0.00  0.00    +0.000 NA
ENDBRANCH   5  24
BRANCH   1  26
ATOM     26  C   UNL     1      -8.251 -42.700  30.030  0.00  0.00    +0.000 C 
ATOM     27  O   UNL     1      -7.550 -43.764  29.882  0.00  0.00    +0.000 OA
BRANCH  26  28
ATOM     28  O   UNL     1      -8.237 -41.791  29.002  0.00  0.00    +0.000 OA
ATOM     29  C   UNL     1      -8.638 -42.158  27.730  0.00  0.00    +0.000 C 
ENDBRANCH  26  28
ENDBRANCH   1  26
TORSDOF 6
ENDMDL
