MODEL 1
REMARK VINA RESULT:   -12.066      0.000      0.000
REMARK INTER + INTRA:         -16.107
REMARK INTER:                 -15.946
REMARK INTRA:                  -0.162
REMARK UNBOUND:                -0.162
REMARK  Name = 
REMARK  7 active torsions:
REMARK  status: ('A' for Active; 'I' for Inactive)
REMARK    1  A    between atoms: C_4  and  C_6
REMARK    2  A    between atoms: C_6  and  C_7
REMARK    3  A    between atoms: C_17  and  C_18
REMARK    4  A    between atoms: C_18  and  C_19
REMARK    5  A    between atoms: C_24  and  C_25
REMARK    6  A    between atoms: C_30  and  N_31
REMARK    7  A    between atoms: C_39  and  C_40
REMARK                            x       y       z     vdW  Elec       q    Type
REMARK                         _______ _______ _______ _____ _____    ______ ____
ROOT
ATOM      1  C   UNL     1     -10.706 -43.091  28.674  0.00  0.00    +0.000 C 
ATOM      2  C   UNL     1     -10.920 -41.550  28.954  0.00  0.00    +0.000 C 
ATOM      3  C   UNL     1      -9.915 -42.021  27.974  0.00  0.00    +0.000 C 
ATOM      4  C   UNL     1      -8.500 -41.689  28.216  0.00  0.00    +0.000 C 
ENDROOT
BRANCH   1  14
ATOM      5  C   UNL     1     -10.653 -44.151  31.010  0.00  0.00    +0.000 C 
ATOM      6  O   UNL     1     -10.064 -43.412  32.069  0.00  0.00    +0.000 OA
ATOM      7  C   UNL     1     -10.853 -42.459  32.549  0.00  0.00    +0.000 C 
ATOM      8  C   UNL     1     -12.255 -42.746  32.150  0.00  0.00    +0.000 C 
ATOM      9  C   UNL     1     -12.128 -43.758  31.049  0.00  0.00    +0.000 C 
ATOM     10  C   UNL     1     -10.549 -45.579  31.490  0.00  0.00    +0.000 C 
ATOM     11  C   UNL     1      -9.408 -46.373  31.033  0.00  0.00    +0.000 C 
ATOM     12  N   UNL     1      -8.437 -45.677  30.254  0.00  0.00    +0.000 NA
ATOM     13  C   UNL     1      -8.898 -44.715  29.360  0.00  0.00    +0.000 C 
ATOM     14  C   UNL     1      -9.951 -43.765  29.776  0.00  0.00    +0.000 C 
ATOM     15  H   UNL     1      -7.585 -45.400  30.744  0.00  0.00    +0.000 HD
BRANCH   8  16
ATOM     16  C   UNL     1     -13.172 -43.208  33.256  0.00  0.00    +0.000 C 
BRANCH  16  17
ATOM     17  C   UNL     1     -14.093 -42.117  33.625  0.00  0.00    +0.000 A 
ATOM     18  C   UNL     1     -13.865 -41.418  34.797  0.00  0.00    +0.000 A 
ATOM     19  C   UNL     1     -14.646 -40.376  35.228  0.00  0.00    +0.000 A 
ATOM     20  N   UNL     1     -15.693 -40.037  34.441  0.00  0.00    +0.000 NA
ATOM     21  C   UNL     1     -15.959 -40.680  33.297  0.00  0.00    +0.000 A 
ATOM     22  C   UNL     1     -15.157 -41.739  32.867  0.00  0.00    +0.000 A 
ENDBRANCH  16  17
ENDBRANCH   8  16
ENDBRANCH   1  14
BRANCH   1  23
ATOM     23  C   UNL     1     -11.801 -43.627  27.861  0.00  0.00    +0.000 C 
ATOM     24  O   UNL     1     -11.975 -44.955  28.049  0.00  0.00    +0.000 OA
ATOM     25  N   UNL     1     -12.718 -43.169  26.945  0.00  0.00    +0.000 N 
ATOM     26  C   UNL     1     -12.864 -41.822  26.540  0.00  0.00    +0.000 C 
ATOM     27  C   UNL     1     -14.308 -41.404  26.307  0.00  0.00    +0.000 C 
ATOM     28  C   UNL     1     -15.195 -42.490  26.878  0.00  0.00    +0.000 C 
ATOM     29  C   UNL     1     -14.947 -43.680  25.976  0.00  0.00    +0.000 C 
ATOM     30  C   UNL     1     -13.607 -44.217  26.333  0.00  0.00    +0.000 C 
BRANCH  28  31
ATOM     31  C   UNL     1     -16.598 -42.081  26.978  0.00  0.00    +0.000 A 
ATOM     32  N   UNL     1     -17.224 -41.717  25.830  0.00  0.00    +0.000 NA
ATOM     33  C   UNL     1     -18.499 -41.320  25.804  0.00  0.00    +0.000 A 
ATOM     34  C   UNL     1     -19.218 -41.278  26.999  0.00  0.00    +0.000 A 
ATOM     35  C   UNL     1     -18.583 -41.647  28.169  0.00  0.00    +0.000 A 
ATOM     36  C   UNL     1     -17.264 -42.054  28.172  0.00  0.00    +0.000 A 
ATOM     37  C   UNL     1     -20.539 -40.871  27.013  0.00  0.00    +0.000 A 
ATOM     38  C   UNL     1     -21.143 -40.503  25.812  0.00  0.00    +0.000 A 
ATOM     39  C   UNL     1     -20.436 -40.545  24.637  0.00  0.00    +0.000 A 
ATOM     40  C   UNL     1     -19.122 -40.950  24.625  0.00  0.00    +0.000 A 
BRANCH  36  41
ATOM     41  N   UNL     1     -16.591 -42.438  29.360  0.00  0.00    +0.000 N 
ATOM     42  H   UNL     1     -15.624 -42.812  29.265  0.00  0.00    +0.000 HD
ATOM     43  H   UNL     1     -16.997 -42.373  30.309  0.00  0.00    +0.000 HD
ENDBRANCH  36  41
ENDBRANCH  28  31
ENDBRANCH   1  23
TORSDOF 6
ENDMDL
