MODEL 1
REMARK VINA RESULT:   -11.700      0.000      0.000
REMARK INTER + INTRA:         -20.555
REMARK INTER:                 -17.856
REMARK INTRA:                  -2.698
REMARK UNBOUND:                -2.698
REMARK  Name = 
REMARK  10 active torsions:
REMARK  status: ('A' for Active; 'I' for Inactive)
REMARK    1  A    between atoms: C_1  and  C_13
REMARK    2  A    between atoms: C_10  and  C_12
REMARK    3  A    between atoms: C_13  and  N_14
REMARK    4  A    between atoms: N_14  and  C_15
REMARK    5  A    between atoms: C_15  and  C_16
REMARK    6  A    between atoms: C_16  and  C_17
REMARK    7  A    between atoms: C_22  and  C_23
REMARK    8  A    between atoms: C_24  and  N_33
REMARK    9  A    between atoms: N_33  and  C_34
REMARK   10  A    between atoms: C_34  and  C_35
REMARK                            x       y       z     vdW  Elec       q    Type
REMARK                         _______ _______ _______ _____ _____    ______ ____
ROOT
ATOM      1  C   UNL     1     -17.906 -41.714  24.737  0.00  0.00    +0.000 A 
ATOM      2  C   UNL     1     -17.618 -41.770  26.119  0.00  0.00    +0.000 A 
ATOM      3  C   UNL     1     -18.569 -41.428  27.048  0.00  0.00    +0.000 A 
ATOM      4  C   UNL     1     -19.821 -41.026  26.620  0.00  0.00    +0.000 A 
ATOM      5  C   UNL     1     -20.077 -40.969  25.262  0.00  0.00    +0.000 A 
ATOM      6  C   UNL     1     -19.111 -41.309  24.269  0.00  0.00    +0.000 A 
ENDROOT
BRANCH   6   7
ATOM      7  C   UNL     1     -19.317 -40.817  22.942  0.00  0.00    +0.000 C 
ATOM      8  C   UNL     1     -20.176 -41.500  21.960  0.00  0.00    +0.000 C 
ATOM      9  C   UNL     1     -20.922 -40.619  20.962  0.00  0.00    +0.000 C 
ATOM     10  C   UNL     1     -21.836 -39.644  21.597  0.00  0.00    +0.000 C 
ATOM     11  C   UNL     1     -20.986 -38.837  22.534  0.00  0.00    +0.000 C 
ATOM     12  C   UNL     1     -20.320 -39.599  23.510  0.00  0.00    +0.000 C 
ATOM     13  C   UNL     1     -19.964 -38.010  21.763  0.00  0.00    +0.000 C 
ATOM     14  C   UNL     1     -19.055 -39.038  21.178  0.00  0.00    +0.000 C 
ATOM     15  C   UNL     1     -18.400 -39.914  22.265  0.00  0.00    +0.000 C 
ATOM     16  C   UNL     1     -19.833 -39.843  20.199  0.00  0.00    +0.000 C 
BRANCH   8  17
ATOM     17  N   UNL     1     -20.603 -42.813  21.963  0.00  0.00    +0.000 NA
ATOM     18  H   UNL     1     -20.105 -43.613  22.211  0.00  0.00    +0.000 HD
BRANCH  17  19
ATOM     19  C   UNL     1     -22.045 -42.972  22.043  0.00  0.00    +0.000 C 
BRANCH  19  20
ATOM     20  C   UNL     1     -22.406 -42.990  23.528  0.00  0.00    +0.000 A 
ATOM     21  C   UNL     1     -21.862 -43.963  24.365  0.00  0.00    +0.000 A 
ATOM     22  C   UNL     1     -22.249 -44.032  25.668  0.00  0.00    +0.000 A 
ATOM     23  N   UNL     1     -23.170 -43.138  26.143  0.00  0.00    +0.000 NA
ATOM     24  C   UNL     1     -23.692 -42.198  25.343  0.00  0.00    +0.000 A 
ATOM     25  C   UNL     1     -23.316 -42.108  24.019  0.00  0.00    +0.000 A 
ENDBRANCH  19  20
ENDBRANCH  17  19
ENDBRANCH   8  17
ENDBRANCH   6   7
BRANCH   1  26
ATOM     26  C   UNL     1     -17.023 -42.486  23.905  0.00  0.00    +0.000 C 
BRANCH  26  27
ATOM     27  C   UNL     1     -15.594 -41.721  24.043  0.00  0.00    +0.000 C 
BRANCH  27  28
ATOM     28  N   UNL     1     -14.690 -42.772  24.419  0.00  0.00    +0.000 NA
ATOM     29  H   UNL     1     -14.717 -43.528  23.609  0.00  0.00    +0.000 HD
BRANCH  28  30
ATOM     30  C   UNL     1     -15.060 -43.532  25.596  0.00  0.00    +0.000 C 
BRANCH  30  31
ATOM     31  C   UNL     1     -13.907 -43.691  26.524  0.00  0.00    +0.000 A 
ATOM     32  C   UNL     1     -13.462 -42.490  27.124  0.00  0.00    +0.000 A 
ATOM     33  O   UNL     1     -14.139 -41.434  26.818  0.00  0.00    +0.000 OA
ATOM     34  N   UNL     1     -12.425 -42.425  27.942  0.00  0.00    +0.000 N 
ATOM     35  C   UNL     1     -11.730 -43.541  28.246  0.00  0.00    +0.000 A 
ATOM     36  C   UNL     1     -12.085 -44.760  27.703  0.00  0.00    +0.000 A 
ATOM     37  C   UNL     1     -13.199 -44.796  26.835  0.00  0.00    +0.000 A 
ATOM     38  C   UNL     1     -11.364 -45.889  28.005  0.00  0.00    +0.000 A 
ATOM     39  C   UNL     1     -10.279 -45.787  28.863  0.00  0.00    +0.000 A 
ATOM     40  C   UNL     1      -9.897 -44.597  29.434  0.00  0.00    +0.000 A 
ATOM     41  C   UNL     1     -10.654 -43.469  29.100  0.00  0.00    +0.000 A 
ATOM     42  C   UNL     1      -8.778 -44.404  30.382  0.00  0.00    +0.000 C 
ATOM     43  H   UNL     1     -12.110 -41.556  28.395  0.00  0.00    +0.000 HD
ENDBRANCH  30  31
ENDBRANCH  28  30
ENDBRANCH  27  28
ENDBRANCH  26  27
ENDBRANCH   1  26
TORSDOF 9
ENDMDL
