MODEL 1
REMARK VINA RESULT:    -9.912      0.000      0.000
REMARK INTER + INTRA:         -13.435
REMARK INTER:                 -13.388
REMARK INTRA:                  -0.047
REMARK UNBOUND:                -0.047
REMARK  Name = 
REMARK  8 active torsions:
REMARK  status: ('A' for Active; 'I' for Inactive)
REMARK    1  A    between atoms: C_9  and  C_10
REMARK    2  A    between atoms: C_18  and  N_19
REMARK    3  A    between atoms: N_19  and  C_20
REMARK    4  A    between atoms: N_19  and  C_29
REMARK    5  A    between atoms: C_30  and  O_37
REMARK    6  A    between atoms: C_32  and  O_35
REMARK    7  A    between atoms: O_35  and  C_36
REMARK    8  A    between atoms: O_37  and  C_38
REMARK                            x       y       z     vdW  Elec       q    Type
REMARK                         _______ _______ _______ _____ _____    ______ ____
ROOT
ATOM      1  N   UNL     1     -20.991 -41.039  22.868  0.00  0.00    +0.000 N 
ENDROOT
BRANCH   1  13
ATOM      2  C   UNL     1     -18.934 -41.766  24.157  0.00  0.00    +0.000 C 
ATOM      3  N   UNL     1     -19.367 -43.063  24.499  0.00  0.00    +0.000 N 
ATOM      4  C   UNL     1     -20.085 -43.549  25.627  0.00  0.00    +0.000 C 
ATOM      5  O   UNL     1     -20.631 -44.686  25.341  0.00  0.00    +0.000 OA
ATOM      6  C   UNL     1     -20.338 -43.079  26.988  0.00  0.00    +0.000 C 
ATOM      7  C   UNL     1     -19.894 -41.722  27.351  0.00  0.00    +0.000 C 
ATOM      8  C   UNL     1     -19.857 -40.812  26.176  0.00  0.00    +0.000 C 
ATOM      9  C   UNL     1     -18.514 -41.053  25.477  0.00  0.00    +0.000 C 
ATOM     10  C   UNL     1     -17.585 -41.948  23.407  0.00  0.00    +0.000 C 
ATOM     11  C   UNL     1     -17.420 -40.604  22.784  0.00  0.00    +0.000 C 
ATOM     12  N   UNL     1     -18.763 -40.460  22.217  0.00  0.00    +0.000 NA
ATOM     13  C   UNL     1     -19.669 -40.849  23.324  0.00  0.00    +0.000 C 
ATOM     14  H   UNL     1     -19.110 -43.820  23.830  0.00  0.00    +0.000 HD
ATOM     15  H   UNL     1     -18.857 -41.055  21.398  0.00  0.00    +0.000 HD
BRANCH  10  16
ATOM     16  C   UNL     1     -16.504 -42.433  24.231  0.00  0.00    +0.000 A 
ATOM     17  C   UNL     1     -15.483 -43.172  23.680  0.00  0.00    +0.000 A 
ATOM     18  C   UNL     1     -14.414 -43.637  24.441  0.00  0.00    +0.000 A 
ATOM     19  C   UNL     1     -14.358 -43.360  25.786  0.00  0.00    +0.000 A 
ATOM     20  C   UNL     1     -15.370 -42.622  26.360  0.00  0.00    +0.000 A 
ATOM     21  C   UNL     1     -16.438 -42.163  25.575  0.00  0.00    +0.000 A 
ENDBRANCH  10  16
ENDBRANCH   1  13
BRANCH   1  22
ATOM     22  C   UNL     1     -21.351 -41.869  21.734  0.00  0.00    +0.000 C 
ATOM     23  C   UNL     1     -22.777 -42.158  21.487  0.00  0.00    +0.000 C 
ATOM     24  C   UNL     1     -22.796 -43.504  20.731  0.00  0.00    +0.000 C 
ATOM     25  N   UNL     1     -21.483 -43.982  20.427  0.00  0.00    +0.000 NA
ATOM     26  C   UNL     1     -20.642 -43.038  19.734  0.00  0.00    +0.000 C 
ATOM     27  C   UNL     1     -20.624 -41.675  20.465  0.00  0.00    +0.000 C 
ATOM     28  C   UNL     1     -21.235 -40.707  19.542  0.00  0.00    +0.000 C 
ATOM     29  C   UNL     1     -22.689 -40.510  19.581  0.00  0.00    +0.000 C 
ATOM     30  C   UNL     1     -23.499 -41.194  20.604  0.00  0.00    +0.000 C 
ATOM     31  H   UNL     1     -21.579 -44.807  19.795  0.00  0.00    +0.000 HD
ENDBRANCH   1  22
BRANCH   1  32
ATOM     32  C   UNL     1     -22.105 -40.449  23.503  0.00  0.00    +0.000 A 
ATOM     33  C   UNL     1     -22.487 -39.176  23.270  0.00  0.00    +0.000 A 
ATOM     34  C   UNL     1     -23.574 -38.625  23.942  0.00  0.00    +0.000 A 
ATOM     35  C   UNL     1     -24.265 -39.406  24.862  0.00  0.00    +0.000 A 
ATOM     36  C   UNL     1     -23.874 -40.698  25.094  0.00  0.00    +0.000 A 
ATOM     37  C   UNL     1     -22.800 -41.209  24.415  0.00  0.00    +0.000 A 
BRANCH  35  38
ATOM     38  O   UNL     1     -25.345 -38.818  25.511  0.00  0.00    +0.000 OA
ATOM     39  C   UNL     1     -25.377 -38.665  26.910  0.00  0.00    +0.000 C 
ENDBRANCH  35  38
BRANCH  33  40
ATOM     40  O   UNL     1     -21.799 -38.407  22.361  0.00  0.00    +0.000 OA
ATOM     41  C   UNL     1     -22.351 -37.553  21.408  0.00  0.00    +0.000 C 
ENDBRANCH  33  40
ENDBRANCH   1  32
TORSDOF 6
ENDMDL
