MODEL 1
REMARK VINA RESULT:   -10.087      0.000      0.000
REMARK INTER + INTRA:         -14.276
REMARK INTER:                 -13.036
REMARK INTRA:                  -1.240
REMARK UNBOUND:                -1.240
REMARK  Name = 
REMARK  8 active torsions:
REMARK  status: ('A' for Active; 'I' for Inactive)
REMARK    1  A    between atoms: C_1  and  C_20
REMARK    2  A    between atoms: C_2  and  N_19
REMARK    3  A    between atoms: C_6  and  C_7
REMARK    4  A    between atoms: C_10  and  C_13
REMARK    5  A    between atoms: C_16  and  O_18
REMARK    6  A    between atoms: C_20  and  O_22
REMARK    7  A    between atoms: O_22  and  C_23
REMARK    8  A    between atoms: C_23  and  C_24
REMARK                            x       y       z     vdW  Elec       q    Type
REMARK                         _______ _______ _______ _____ _____    ______ ____
ROOT
ATOM      1  C   UNL     1     -12.019 -43.131  32.673  0.00  0.00    +0.000 C 
ATOM      2  C   UNL     1     -11.143 -42.451  33.376  0.00  0.00    +0.000 C 
ATOM      3  O   UNL     1      -9.796 -42.728  33.317  0.00  0.00    +0.000 OA
ATOM      4  C   UNL     1      -9.322 -43.738  32.508  0.00  0.00    +0.000 A 
ATOM      5  C   UNL     1     -10.187 -44.487  31.746  0.00  0.00    +0.000 A 
ATOM      6  C   UNL     1     -11.650 -44.244  31.762  0.00  0.00    +0.000 C 
ATOM      7  C   UNL     1      -9.680 -45.508  30.933  0.00  0.00    +0.000 A 
ATOM      8  C   UNL     1      -8.339 -45.786  30.871  0.00  0.00    +0.000 A 
ATOM      9  C   UNL     1      -7.479 -45.031  31.636  0.00  0.00    +0.000 A 
ATOM     10  C   UNL     1      -7.954 -44.025  32.442  0.00  0.00    +0.000 A 
ENDROOT
BRANCH   6  11
ATOM     11  C   UNL     1     -12.131 -43.961  30.371  0.00  0.00    +0.000 A 
ATOM     12  C   UNL     1     -13.111 -44.742  29.805  0.00  0.00    +0.000 A 
ATOM     13  C   UNL     1     -13.555 -44.480  28.514  0.00  0.00    +0.000 A 
ATOM     14  C   UNL     1     -13.025 -43.438  27.783  0.00  0.00    +0.000 A 
ATOM     15  C   UNL     1     -12.041 -42.652  28.354  0.00  0.00    +0.000 A 
ATOM     16  C   UNL     1     -11.602 -42.920  29.641  0.00  0.00    +0.000 A 
ATOM     17  C   UNL     1     -13.496 -43.154  26.405  0.00  0.00    +0.000 C 
ENDBRANCH   6  11
BRANCH   2  18
ATOM     18  N   UNL     1     -11.581 -41.377  34.245  0.00  0.00    +0.000 N 
ATOM     19  H   UNL     1     -11.010 -40.517  34.363  0.00  0.00    +0.000 HD
ATOM     20  H   UNL     1     -12.475 -41.433  34.776  0.00  0.00    +0.000 HD
ENDBRANCH   2  18
BRANCH   9  21
ATOM     21  O   UNL     1      -6.123 -45.303  31.582  0.00  0.00    +0.000 OA
ATOM     22  H   UNL     1      -5.823 -46.094  31.027  0.00  0.00    +0.000 HD
ENDBRANCH   9  21
BRANCH   1  23
ATOM     23  C   UNL     1     -13.439 -42.754  32.811  0.00  0.00    +0.000 C 
ATOM     24  O   UNL     1     -14.264 -43.649  33.065  0.00  0.00    +0.000 OA
BRANCH  23  25
ATOM     25  O   UNL     1     -13.889 -41.463  32.675  0.00  0.00    +0.000 OA
BRANCH  25  26
ATOM     26  C   UNL     1     -15.071 -40.964  33.260  0.00  0.00    +0.000 C 
ATOM     27  C   UNL     1     -14.906 -40.567  34.693  0.00  0.00    +0.000 C 
ENDBRANCH  25  26
ENDBRANCH  23  25
ENDBRANCH   1  23
TORSDOF 6
ENDMDL
