MODEL 1
REMARK VINA RESULT:   -10.049      0.000      0.000
REMARK INTER + INTRA:         -19.815
REMARK INTER:                 -17.687
REMARK INTRA:                  -2.129
REMARK UNBOUND:                -2.129
REMARK  Name = 
REMARK  14 active torsions:
REMARK  status: ('A' for Active; 'I' for Inactive)
REMARK    1  A    between atoms: N_1  and  N_12
REMARK    2  A    between atoms: N_2  and  C_3
REMARK    3  A    between atoms: C_6  and  C_7
REMARK    4  A    between atoms: N_12  and  C_13
REMARK    5  A    between atoms: N_12  and  C_15
REMARK    6  A    between atoms: C_13  and  C_14
REMARK    7  A    between atoms: C_15  and  C_16
REMARK    8  A    between atoms: C_16  and  N_17
REMARK    9  A    between atoms: N_17  and  C_18
REMARK   10  A    between atoms: N_17  and  C_31
REMARK   11  A    between atoms: C_18  and  C_19
REMARK   12  A    between atoms: C_18  and  C_25
REMARK   13  A    between atoms: C_31  and  C_32
REMARK   14  A    between atoms: N_34  and  C_35
REMARK                            x       y       z     vdW  Elec       q    Type
REMARK                         _______ _______ _______ _____ _____    ______ ____
ROOT
ATOM      1  N   UNL     1     -11.493 -43.134  31.052  0.00  0.00    +0.000 NA
ENDROOT
BRANCH   1   2
ATOM      2  C   UNL     1     -12.779 -43.721  30.878  0.00  0.00    +0.000 C 
BRANCH   2   3
ATOM      3  C   UNL     1     -12.716 -45.117  30.316  0.00  0.00    +0.000 C 
BRANCH   3   4
ATOM      4  N   UNL     1     -12.564 -45.146  28.901  0.00  0.00    +0.000 N 
BRANCH   4   5
ATOM      5  N   UNL     1     -13.526 -44.418  28.132  0.00  0.00    +0.000 NA
ATOM      6  N   UNL     1     -13.450 -44.275  26.897  0.00  0.00    +0.000 NA
BRANCH   6   7
ATOM      7  C   UNL     1     -14.391 -43.556  26.111  0.00  0.00    +0.000 A 
ATOM      8  C   UNL     1     -14.335 -43.681  24.742  0.00  0.00    +0.000 A 
ATOM      9  C   UNL     1     -15.230 -43.003  23.925  0.00  0.00    +0.000 A 
ATOM     10  C   UNL     1     -16.202 -42.182  24.466  0.00  0.00    +0.000 A 
ATOM     11  C   UNL     1     -16.266 -42.051  25.832  0.00  0.00    +0.000 A 
ATOM     12  C   UNL     1     -15.362 -42.737  26.641  0.00  0.00    +0.000 A 
BRANCH  10  13
ATOM     13  C   UNL     1     -17.154 -41.459  23.625  0.00  0.00    +0.000 C 
ATOM     14  O   UNL     1     -18.373 -41.508  23.893  0.00  0.00    +0.000 OA
ATOM     15  O   UNL     1     -16.671 -40.734  22.548  0.00  0.00    +0.000 OA
ENDBRANCH  10  13
ENDBRANCH   6   7
ENDBRANCH   4   5
BRANCH   4  16
ATOM     16  C   UNL     1     -11.544 -45.827  28.158  0.00  0.00    +0.000 C 
ATOM     17  C   UNL     1     -10.152 -45.289  28.344  0.00  0.00    +0.000 C 
ENDBRANCH   4  16
ENDBRANCH   3   4
ENDBRANCH   2   3
ENDBRANCH   1   2
BRANCH   1  18
ATOM     18  C   UNL     1     -10.712 -43.607  32.120  0.00  0.00    +0.000 C 
BRANCH  18  19
ATOM     19  C   UNL     1     -10.535 -42.691  33.273  0.00  0.00    +0.000 A 
ATOM     20  C   UNL     1     -11.567 -41.951  33.818  0.00  0.00    +0.000 A 
ATOM     21  C   UNL     1     -11.376 -41.108  34.893  0.00  0.00    +0.000 A 
ATOM     22  C   UNL     1     -10.144 -40.952  35.489  0.00  0.00    +0.000 A 
ATOM     23  C   UNL     1      -9.099 -41.680  34.960  0.00  0.00    +0.000 A 
ATOM     24  C   UNL     1      -9.299 -42.521  33.887  0.00  0.00    +0.000 A 
ENDBRANCH  18  19
BRANCH  18  25
ATOM     25  C   UNL     1      -9.424 -44.208  31.697  0.00  0.00    +0.000 A 
ATOM     26  C   UNL     1      -9.279 -45.575  31.671  0.00  0.00    +0.000 A 
ATOM     27  C   UNL     1      -8.105 -46.195  31.285  0.00  0.00    +0.000 A 
ATOM     28  C   UNL     1      -7.023 -45.448  30.908  0.00  0.00    +0.000 A 
ATOM     29  C   UNL     1      -7.139 -44.080  30.924  0.00  0.00    +0.000 A 
ATOM     30  C   UNL     1      -8.315 -43.482  31.310  0.00  0.00    +0.000 A 
ENDBRANCH  18  25
ENDBRANCH   1  18
BRANCH   1  31
ATOM     31  C   UNL     1     -11.273 -41.868  30.535  0.00  0.00    +0.000 C 
BRANCH  31  32
ATOM     32  C   UNL     1     -10.800 -41.722  29.143  0.00  0.00    +0.000 C 
ATOM     33  O   UNL     1     -11.653 -41.775  28.176  0.00  0.00    +0.000 OA
ATOM     34  N   UNL     1      -9.467 -41.527  28.719  0.00  0.00    +0.000 N 
ATOM     35  H   UNL     1      -8.722 -41.487  29.447  0.00  0.00    +0.000 HD
BRANCH  34  36
ATOM     36  C   UNL     1      -9.120 -41.394  27.303  0.00  0.00    +0.000 C 
ATOM     37  C   UNL     1      -7.880 -40.722  26.894  0.00  0.00    +0.000 C 
ATOM     38  C   UNL     1      -7.865 -42.200  26.950  0.00  0.00    +0.000 C 
ENDBRANCH  34  36
ENDBRANCH  31  32
ENDBRANCH   1  31
TORSDOF 13
ENDMDL
