MODEL 1
REMARK VINA RESULT:    -9.609      0.000      0.000
REMARK INTER + INTRA:         -13.003
REMARK INTER:                 -12.137
REMARK INTRA:                  -0.866
REMARK UNBOUND:                -0.866
REMARK  Name = 
REMARK  6 active torsions:
REMARK  status: ('A' for Active; 'I' for Inactive)
REMARK    1  A    between atoms: S_1  and  N_4
REMARK    2  A    between atoms: S_1  and  C_17
REMARK    3  A    between atoms: N_4  and  C_5
REMARK    4  A    between atoms: C_8  and  C_9
REMARK    5  A    between atoms: C_11  and  S_14
REMARK    6  A    between atoms: C_20  and  C_23
REMARK                            x       y       z     vdW  Elec       q    Type
REMARK                         _______ _______ _______ _____ _____    ______ ____
ROOT
ATOM      1  C   UNL     1     -11.098 -44.377  28.494  0.00  0.00    +0.000 A 
ATOM      2  C   UNL     1     -12.045 -45.222  27.961  0.00  0.00    +0.000 A 
ATOM      3  C   UNL     1     -13.151 -44.791  27.254  0.00  0.00    +0.000 A 
ATOM      4  C   UNL     1     -13.309 -43.432  27.076  0.00  0.00    +0.000 A 
ATOM      5  C   UNL     1     -12.397 -42.522  27.586  0.00  0.00    +0.000 A 
ATOM      6  C   UNL     1     -11.317 -43.007  28.279  0.00  0.00    +0.000 A 
ENDROOT
BRANCH   4   7
ATOM      7  C   UNL     1     -14.483 -42.982  26.328  0.00  0.00    +0.000 A 
ATOM      8  O   UNL     1     -14.678 -43.028  25.033  0.00  0.00    +0.000 OA
ATOM      9  C   UNL     1     -15.875 -42.517  24.767  0.00  0.00    +0.000 A 
ATOM     10  N   UNL     1     -16.435 -42.147  25.928  0.00  0.00    +0.000 NA
ATOM     11  N   UNL     1     -15.574 -42.435  26.890  0.00  0.00    +0.000 NA
BRANCH   9  12
ATOM     12  S   UNL     1     -16.528 -42.392  23.127  0.00  0.00    +0.000 S 
ATOM     13  H   UNL     1     -16.698 -43.668  22.524  0.00  0.00    +0.000 HD
ENDBRANCH   9  12
ENDBRANCH   4   7
BRANCH   1  14
ATOM     14  N   UNL     1      -9.966 -44.803  29.242  0.00  0.00    +0.000 N 
ATOM     15  H   UNL     1      -9.110 -45.071  28.663  0.00  0.00    +0.000 HD
BRANCH  14  16
ATOM     16  S   UNL     1      -9.996 -44.871  30.929  0.00  0.00    +0.000 S 
ATOM     17  O   UNL     1      -9.959 -46.338  31.363  0.00  0.00    +0.000 OA
ATOM     18  O   UNL     1      -8.715 -44.262  31.439  0.00  0.00    +0.000 OA
BRANCH  16  19
ATOM     19  C   UNL     1     -11.345 -44.117  31.712  0.00  0.00    +0.000 A 
ATOM     20  C   UNL     1     -12.611 -44.702  31.733  0.00  0.00    +0.000 A 
ATOM     21  C   UNL     1     -13.668 -44.081  32.363  0.00  0.00    +0.000 A 
ATOM     22  C   UNL     1     -13.527 -42.865  32.995  0.00  0.00    +0.000 A 
ATOM     23  C   UNL     1     -12.280 -42.282  32.979  0.00  0.00    +0.000 A 
ATOM     24  C   UNL     1     -11.231 -42.900  32.352  0.00  0.00    +0.000 A 
ATOM     25  C   UNL     1     -14.671 -42.189  33.679  0.00  0.00    +0.000 C 
ENDBRANCH  16  19
ENDBRANCH  14  16
ENDBRANCH   1  14
TORSDOF 5
ENDMDL
