MODEL 1
REMARK VINA RESULT:   -10.232      0.000      0.000
REMARK INTER + INTRA:         -13.607
REMARK INTER:                 -12.924
REMARK INTRA:                  -0.683
REMARK UNBOUND:                -0.683
REMARK  Name = 
REMARK  6 active torsions:
REMARK  status: ('A' for Active; 'I' for Inactive)
REMARK    1  A    between atoms: N_1  and  C_19
REMARK    2  A    between atoms: N_5  and  N_6
REMARK    3  A    between atoms: N_6  and  C_7
REMARK    4  A    between atoms: C_8  and  C_9
REMARK    5  A    between atoms: C_9  and  O_11
REMARK    6  A    between atoms: C_16  and  C_18
REMARK                            x       y       z     vdW  Elec       q    Type
REMARK                         _______ _______ _______ _____ _____    ______ ____
ROOT
ATOM      1  N   UNL     1     -13.725 -43.949  29.129  0.00  0.00    +0.000 N 
ATOM      2  C   UNL     1     -12.393 -44.138  29.577  0.00  0.00    +0.000 C 
ATOM      3  O   UNL     1     -11.358 -44.055  28.859  0.00  0.00    +0.000 OA
ATOM      4  C   UNL     1     -12.500 -44.435  30.997  0.00  0.00    +0.000 C 
ATOM      5  N   UNL     1     -11.531 -44.675  31.813  0.00  0.00    +0.000 NA
ATOM      6  C   UNL     1     -13.935 -44.401  31.305  0.00  0.00    +0.000 C 
ATOM      7  N   UNL     1     -14.549 -44.129  30.237  0.00  0.00    +0.000 NA
ATOM      8  C   UNL     1     -14.482 -44.656  32.684  0.00  0.00    +0.000 C 
ENDROOT
BRANCH   1   9
ATOM      9  C   UNL     1     -14.124 -43.627  27.784  0.00  0.00    +0.000 A 
ATOM     10  C   UNL     1     -14.992 -42.596  27.502  0.00  0.00    +0.000 A 
ATOM     11  C   UNL     1     -15.367 -42.303  26.191  0.00  0.00    +0.000 A 
ATOM     12  C   UNL     1     -14.881 -43.037  25.133  0.00  0.00    +0.000 A 
ATOM     13  C   UNL     1     -14.013 -44.070  25.412  0.00  0.00    +0.000 A 
ATOM     14  C   UNL     1     -13.642 -44.358  26.711  0.00  0.00    +0.000 A 
ENDBRANCH   1   9
BRANCH   5  15
ATOM     15  N   UNL     1     -10.210 -44.658  31.317  0.00  0.00    +0.000 N 
ATOM     16  H   UNL     1     -10.007 -45.150  30.446  0.00  0.00    +0.000 HD
BRANCH  15  17
ATOM     17  C   UNL     1      -9.260 -43.941  32.089  0.00  0.00    +0.000 A 
ATOM     18  C   UNL     1      -7.930 -44.251  32.003  0.00  0.00    +0.000 A 
ATOM     19  C   UNL     1      -7.034 -43.497  32.787  0.00  0.00    +0.000 A 
ATOM     20  C   UNL     1      -7.472 -42.489  33.606  0.00  0.00    +0.000 A 
ATOM     21  C   UNL     1      -8.806 -42.164  33.705  0.00  0.00    +0.000 A 
ATOM     22  C   UNL     1      -9.670 -42.905  32.936  0.00  0.00    +0.000 A 
BRANCH  18  23
ATOM     23  C   UNL     1      -7.337 -45.283  31.201  0.00  0.00    +0.000 C 
ATOM     24  O   UNL     1      -7.900 -46.410  31.116  0.00  0.00    +0.000 OA
BRANCH  23  25
ATOM     25  O   UNL     1      -6.178 -45.131  30.504  0.00  0.00    +0.000 OA
ATOM     26  H   UNL     1      -5.608 -45.887  30.143  0.00  0.00    +0.000 HD
ENDBRANCH  23  25
ENDBRANCH  18  23
ENDBRANCH  15  17
ENDBRANCH   5  15
TORSDOF 5
ENDMDL
