MODEL 1
REMARK VINA RESULT:    -8.569      0.000      0.000
REMARK INTER + INTRA:         -12.375
REMARK INTER:                 -11.574
REMARK INTRA:                  -0.801
REMARK UNBOUND:                -0.801
REMARK  Name = 
REMARK  7 active torsions:
REMARK  status: ('A' for Active; 'I' for Inactive)
REMARK    1  A    between atoms: C_1  and  C_29
REMARK    2  A    between atoms: C_7  and  C_11
REMARK    3  A    between atoms: C_11  and  C_12
REMARK    4  A    between atoms: C_12  and  O_14
REMARK    5  A    between atoms: N_20  and  C_22
REMARK    6  A    between atoms: C_22  and  C_23
REMARK    7  A    between atoms: C_29  and  O_31
REMARK                            x       y       z     vdW  Elec       q    Type
REMARK                         _______ _______ _______ _____ _____    ______ ____
ROOT
ATOM      1  C   UNL     1     -11.143 -42.476  31.535  0.00  0.00    +0.000 C 
ATOM      2  N   UNL     1     -12.078 -42.190  30.716  0.00  0.00    +0.000 NA
ATOM      3  N   UNL     1     -11.487 -42.847  29.597  0.00  0.00    +0.000 N 
ATOM      4  C   UNL     1     -10.398 -43.190  30.439  0.00  0.00    +0.000 C 
ATOM      5  C   UNL     1     -10.212 -44.615  30.805  0.00  0.00    +0.000 C 
ATOM      6  C   UNL     1     -11.128 -45.545  30.934  0.00  0.00    +0.000 C 
ATOM      7  C   UNL     1     -12.565 -45.508  30.765  0.00  0.00    +0.000 C 
ATOM      8  C   UNL     1     -13.206 -45.428  29.573  0.00  0.00    +0.000 C 
ATOM      9  C   UNL     1     -12.615 -45.363  28.271  0.00  0.00    +0.000 C 
ATOM     10 CL   UNL     1     -12.795 -46.789  27.180  0.00  0.00    +0.000 Cl
ATOM     11  O   UNL     1      -8.927 -45.152  31.074  0.00  0.00    +0.000 OA
ATOM     12  C   UNL     1      -7.736 -44.560  31.575  0.00  0.00    +0.000 C 
ATOM     13  C   UNL     1      -7.179 -43.533  30.636  0.00  0.00    +0.000 C 
ATOM     14  C   UNL     1      -8.174 -42.347  30.739  0.00  0.00    +0.000 C 
ATOM     15  O   UNL     1      -9.221 -42.662  30.016  0.00  0.00    +0.000 OA
ATOM     16  N   UNL     1     -11.769 -43.052  28.253  0.00  0.00    +0.000 N 
ATOM     17  C   UNL     1     -11.985 -44.338  27.687  0.00  0.00    +0.000 C 
ENDROOT
BRANCH   1  18
ATOM     18  C   UNL     1     -10.946 -42.189  32.918  0.00  0.00    +0.000 C 
ATOM     19  O   UNL     1      -9.787 -42.393  33.421  0.00  0.00    +0.000 OA
BRANCH  18  20
ATOM     20  O   UNL     1     -11.878 -41.700  33.803  0.00  0.00    +0.000 OA
ATOM     21  H   UNL     1     -12.102 -40.718  33.892  0.00  0.00    +0.000 HD
ENDBRANCH  18  20
ENDBRANCH   1  18
BRANCH   7  22
ATOM     22  C   UNL     1     -13.442 -45.594  31.965  0.00  0.00    +0.000 C 
BRANCH  22  23
ATOM     23  C   UNL     1     -14.133 -44.291  32.139  0.00  0.00    +0.000 C 
ATOM     24  O   UNL     1     -14.120 -43.754  33.287  0.00  0.00    +0.000 OA
BRANCH  23  25
ATOM     25  O   UNL     1     -14.775 -43.653  31.120  0.00  0.00    +0.000 OA
ATOM     26  H   UNL     1     -15.146 -44.179  30.338  0.00  0.00    +0.000 HD
ENDBRANCH  23  25
ENDBRANCH  22  23
ENDBRANCH   7  22
BRANCH  16  27
ATOM     27  C   UNL     1     -11.910 -41.873  27.339  0.00  0.00    +0.000 C 
BRANCH  27  28
ATOM     28  C   UNL     1     -13.161 -42.048  26.582  0.00  0.00    +0.000 A 
ATOM     29  C   UNL     1     -13.185 -42.251  25.204  0.00  0.00    +0.000 A 
ATOM     30  C   UNL     1     -14.363 -42.414  24.503  0.00  0.00    +0.000 A 
ATOM     31  C   UNL     1     -15.563 -42.378  25.174  0.00  0.00    +0.000 A 
ATOM     32  C   UNL     1     -15.544 -42.177  26.547  0.00  0.00    +0.000 A 
ATOM     33  C   UNL     1     -14.363 -42.015  27.238  0.00  0.00    +0.000 A 
ENDBRANCH  27  28
ENDBRANCH  16  27
TORSDOF 7
ENDMDL
