MODEL 1
REMARK VINA RESULT:    -9.462      0.000      0.000
REMARK INTER + INTRA:         -14.664
REMARK INTER:                 -14.163
REMARK INTRA:                  -0.501
REMARK UNBOUND:                -0.501
REMARK  Name = 
REMARK  14 active torsions:
REMARK  status: ('A' for Active; 'I' for Inactive)
REMARK    1  A    between atoms: C_1  and  C_13
REMARK    2  A    between atoms: C_10  and  C_12
REMARK    3  A    between atoms: C_13  and  N_14
REMARK    4  A    between atoms: N_14  and  C_15
REMARK    5  A    between atoms: C_16  and  O_17
REMARK    6  A    between atoms: O_17  and  C_18
REMARK    7  A    between atoms: C_22  and  C_23
REMARK    8  A    between atoms: C_23  and  C_24
REMARK    9  A    between atoms: N_26  and  C_27
REMARK   10  A    between atoms: N_26  and  C_28
REMARK   11  A    between atoms: N_30  and  C_31
REMARK   12  A    between atoms: C_31  and  C_32
REMARK   13  A    between atoms: C_32  and  O_34
REMARK   14  A    between atoms: N_37  and  C_39
REMARK                            x       y       z     vdW  Elec       q    Type
REMARK                         _______ _______ _______ _____ _____    ______ ____
ROOT
ATOM      1  C   UNL     1     -12.315 -44.028  28.038  0.00  0.00    +0.000 A 
ATOM      2  C   UNL     1     -12.791 -45.039  27.200  0.00  0.00    +0.000 A 
ATOM      3  C   UNL     1     -12.095 -46.217  27.064  0.00  0.00    +0.000 A 
ATOM      4  C   UNL     1     -10.906 -46.403  27.769  0.00  0.00    +0.000 A 
ATOM      5  C   UNL     1     -10.450 -45.410  28.586  0.00  0.00    +0.000 A 
ATOM      6  C   UNL     1     -11.152 -44.190  28.738  0.00  0.00    +0.000 A 
ENDROOT
BRANCH   6   7
ATOM      7  C   UNL     1     -10.621 -43.167  29.609  0.00  0.00    +0.000 C 
ATOM      8  C   UNL     1     -11.618 -42.575  30.622  0.00  0.00    +0.000 C 
ATOM      9  N   UNL     1     -11.958 -43.518  31.627  0.00  0.00    +0.000 NA
ATOM     10  C   UNL     1     -11.041 -43.655  32.705  0.00  0.00    +0.000 C 
ATOM     11  C   UNL     1      -9.861 -42.762  32.727  0.00  0.00    +0.000 C 
ATOM     12  N   UNL     1      -9.180 -42.578  31.471  0.00  0.00    +0.000 NA
ATOM     13  C   UNL     1      -9.494 -43.642  30.522  0.00  0.00    +0.000 C 
ATOM     14  C   UNL     1      -7.754 -42.626  31.720  0.00  0.00    +0.000 C 
BRANCH   7  15
ATOM     15  C   UNL     1     -10.052 -42.021  28.860  0.00  0.00    +0.000 C 
ATOM     16  O   UNL     1     -10.730 -40.911  28.882  0.00  0.00    +0.000 OA
ATOM     17  N   UNL     1      -8.875 -41.964  28.121  0.00  0.00    +0.000 N 
ATOM     18  C   UNL     1      -8.468 -40.690  27.489  0.00  0.00    +0.000 C 
ATOM     19  C   UNL     1      -8.018 -43.077  27.888  0.00  0.00    +0.000 C 
ENDBRANCH   7  15
BRANCH   9  20
ATOM     20  C   UNL     1     -13.324 -43.409  32.024  0.00  0.00    +0.000 C 
BRANCH  20  21
ATOM     21  C   UNL     1     -14.246 -44.233  31.207  0.00  0.00    +0.000 C 
ATOM     22  O   UNL     1     -15.016 -43.761  30.336  0.00  0.00    +0.000 OA
BRANCH  21  23
ATOM     23  O   UNL     1     -14.265 -45.604  31.409  0.00  0.00    +0.000 OA
ATOM     24  H   UNL     1     -15.075 -46.040  31.826  0.00  0.00    +0.000 HD
ENDBRANCH  21  23
ENDBRANCH  20  21
ENDBRANCH   9  20
ENDBRANCH   6   7
BRANCH   1  25
ATOM     25  N   UNL     1     -13.075 -42.842  28.032  0.00  0.00    +0.000 N 
ATOM     26  H   UNL     1     -13.448 -42.408  28.909  0.00  0.00    +0.000 HD
BRANCH  25  27
ATOM     27  C   UNL     1     -13.362 -42.184  26.784  0.00  0.00    +0.000 C 
BRANCH  27  28
ATOM     28  C   UNL     1     -14.792 -42.005  26.476  0.00  0.00    +0.000 A 
ATOM     29  C   UNL     1     -15.145 -41.812  25.127  0.00  0.00    +0.000 A 
ATOM     30  O   UNL     1     -14.247 -41.801  24.248  0.00  0.00    +0.000 OA
ATOM     31  N   UNL     1     -16.408 -41.636  24.729  0.00  0.00    +0.000 N 
ATOM     32  C   UNL     1     -17.435 -41.632  25.595  0.00  0.00    +0.000 A 
ATOM     33  C   UNL     1     -17.116 -41.819  26.918  0.00  0.00    +0.000 A 
ATOM     34  C   UNL     1     -15.826 -42.001  27.353  0.00  0.00    +0.000 A 
ATOM     35  C   UNL     1     -18.188 -41.811  27.817  0.00  0.00    +0.000 A 
ATOM     36  C   UNL     1     -19.481 -41.627  27.388  0.00  0.00    +0.000 A 
ATOM     37  C   UNL     1     -19.787 -41.441  26.067  0.00  0.00    +0.000 A 
ATOM     38  C   UNL     1     -18.748 -41.445  25.161  0.00  0.00    +0.000 A 
ATOM     39  C   UNL     1     -21.186 -41.239  25.586  0.00  0.00    +0.000 C 
ATOM     40  H   UNL     1     -16.672 -41.492  23.718  0.00  0.00    +0.000 HD
ENDBRANCH  27  28
ENDBRANCH  25  27
ENDBRANCH   1  25
BRANCH   2  41
ATOM     41  O   UNL     1     -13.959 -44.858  26.504  0.00  0.00    +0.000 OA
ATOM     42  C   UNL     1     -13.979 -45.078  25.109  0.00  0.00    +0.000 C 
ENDBRANCH   2  41
TORSDOF 9
ENDMDL
