MODEL 1
REMARK VINA RESULT:    -9.855      0.000      0.000
REMARK INTER + INTRA:         -11.891
REMARK INTER:                 -11.583
REMARK INTRA:                  -0.307
REMARK UNBOUND:                -0.307
REMARK  Name = 
REMARK  5 active torsions:
REMARK  status: ('A' for Active; 'I' for Inactive)
REMARK    1  A    between atoms: C_9  and  C_10
REMARK    2  A    between atoms: C_12  and  O_18
REMARK    3  A    between atoms: C_13  and  O_16
REMARK    4  A    between atoms: O_16  and  C_17
REMARK    5  A    between atoms: O_18  and  C_19
REMARK                            x       y       z     vdW  Elec       q    Type
REMARK                         _______ _______ _______ _____ _____    ______ ____
ROOT
ATOM      1  C   UNL     1     -11.013 -42.448  33.180  0.00  0.00    +0.000 A 
ATOM      2  C   UNL     1     -11.118 -43.546  32.355  0.00  0.00    +0.000 A 
ATOM      3  C   UNL     1      -9.946 -44.202  32.038  0.00  0.00    +0.000 A 
ATOM      4  O   UNL     1      -9.996 -45.212  31.284  0.00  0.00    +0.000 OA
ATOM      5  N   UNL     1      -8.779 -43.756  32.534  0.00  0.00    +0.000 N 
ATOM      6  C   UNL     1      -8.664 -42.680  33.345  0.00  0.00    +0.000 A 
ATOM      7  N   UNL     1      -9.806 -42.041  33.655  0.00  0.00    +0.000 NA
ATOM      8  N   UNL     1      -7.403 -42.253  33.840  0.00  0.00    +0.000 N 
ATOM      9  C   UNL     1     -12.411 -44.036  31.804  0.00  0.00    +0.000 C 
ATOM     10  C   UNL     1     -13.591 -43.548  32.609  0.00  0.00    +0.000 C 
ATOM     11  C   UNL     1     -13.430 -42.158  33.065  0.00  0.00    +0.000 C 
ATOM     12  O   UNL     1     -14.409 -41.356  33.023  0.00  0.00    +0.000 OA
ATOM     13  N   UNL     1     -12.167 -41.735  33.550  0.00  0.00    +0.000 N 
ATOM     14  H   UNL     1      -7.889 -44.259  32.289  0.00  0.00    +0.000 HD
ATOM     15  H   UNL     1      -7.037 -42.603  34.740  0.00  0.00    +0.000 HD
ATOM     16  H   UNL     1      -6.848 -41.581  33.287  0.00  0.00    +0.000 HD
ATOM     17  H   UNL     1     -12.077 -40.905  34.177  0.00  0.00    +0.000 HD
ENDROOT
BRANCH   9  18
ATOM     18  C   UNL     1     -12.571 -43.761  30.357  0.00  0.00    +0.000 A 
ATOM     19  C   UNL     1     -11.709 -42.970  29.628  0.00  0.00    +0.000 A 
ATOM     20  C   UNL     1     -11.900 -42.737  28.283  0.00  0.00    +0.000 A 
ATOM     21  C   UNL     1     -12.974 -43.296  27.606  0.00  0.00    +0.000 A 
ATOM     22  C   UNL     1     -13.834 -44.087  28.332  0.00  0.00    +0.000 A 
ATOM     23  C   UNL     1     -13.639 -44.321  29.694  0.00  0.00    +0.000 A 
BRANCH  21  24
ATOM     24  O   UNL     1     -13.158 -43.055  26.248  0.00  0.00    +0.000 OA
ATOM     25  C   UNL     1     -14.296 -43.609  25.627  0.00  0.00    +0.000 C 
ENDBRANCH  21  24
BRANCH  20  26
ATOM     26  O   UNL     1     -11.019 -41.937  27.578  0.00  0.00    +0.000 OA
ATOM     27  C   UNL     1      -9.674 -41.865  27.980  0.00  0.00    +0.000 C 
ENDBRANCH  20  26
ENDBRANCH   9  18
TORSDOF 3
ENDMDL
