MODEL 1
REMARK VINA RESULT:    -9.852      0.000      0.000
REMARK INTER + INTRA:         -11.629
REMARK INTER:                 -11.868
REMARK INTRA:                   0.239
REMARK UNBOUND:                 0.239
REMARK  Name = 
REMARK  5 active torsions:
REMARK  status: ('A' for Active; 'I' for Inactive)
REMARK    1  A    between atoms: N_1  and  C_12
REMARK    2  A    between atoms: C_2  and  C_6
REMARK    3  A    between atoms: C_25  and  C_26
REMARK    4  A    between atoms: C_26  and  O_28
REMARK    5  A    between atoms: C_34  and  C_37
REMARK                            x       y       z     vdW  Elec       q    Type
REMARK                         _______ _______ _______ _____ _____    ______ ____
ROOT
ATOM      1  C   UNL     1     -18.859 -41.170  23.626  0.00  0.00    +0.000 C 
ATOM      2  C   UNL     1     -18.738 -41.198  24.982  0.00  0.00    +0.000 C 
ATOM      3  C   UNL     1     -19.524 -42.051  25.863  0.00  0.00    +0.000 C 
ATOM      4  C   UNL     1     -20.452 -42.882  25.251  0.00  0.00    +0.000 C 
ATOM      5  N   UNL     1     -20.248 -42.889  23.862  0.00  0.00    +0.000 N 
ATOM      6  C   UNL     1     -20.160 -41.532  23.211  0.00  0.00    +0.000 C 
ATOM      7  C   UNL     1     -20.592 -41.917  21.836  0.00  0.00    +0.000 C 
ATOM      8  O   UNL     1     -19.748 -41.688  21.008  0.00  0.00    +0.000 OA
ATOM      9  N   UNL     1     -21.868 -42.484  21.630  0.00  0.00    +0.000 N 
ATOM     10  C   UNL     1     -23.106 -42.162  21.132  0.00  0.00    +0.000 C 
ATOM     11  C   UNL     1     -23.364 -42.511  22.622  0.00  0.00    +0.000 C 
ATOM     12  O   UNL     1     -22.362 -42.240  23.503  0.00  0.00    +0.000 OA
ATOM     13  C   UNL     1     -22.488 -41.044  24.113  0.00  0.00    +0.000 C 
ATOM     14  C   UNL     1     -21.152 -40.509  23.781  0.00  0.00    +0.000 C 
ATOM     15  C   UNL     1     -23.721 -40.586  23.474  0.00  0.00    +0.000 C 
ATOM     16  C   UNL     1     -24.340 -41.758  23.068  0.00  0.00    +0.000 C 
ATOM     17  C   UNL     1     -22.671 -43.671  22.065  0.00  0.00    +0.000 C 
ATOM     18  C   UNL     1     -22.539 -44.929  21.812  0.00  0.00    +0.000 C 
ATOM     19  C   UNL     1     -23.287 -46.145  22.237  0.00  0.00    +0.000 C 
ATOM     20  C   UNL     1     -23.029 -46.880  23.348  0.00  0.00    +0.000 C 
ATOM     21  C   UNL     1     -22.040 -46.773  24.396  0.00  0.00    +0.000 C 
ATOM     22  C   UNL     1     -21.640 -46.026  25.385  0.00  0.00    +0.000 C 
ATOM     23  C   UNL     1     -24.010 -48.054  23.512  0.00  0.00    +0.000 C 
ATOM     24  C   UNL     1     -21.458 -43.567  26.059  0.00  0.00    +0.000 C 
ATOM     25  C   UNL     1     -21.913 -44.806  26.097  0.00  0.00    +0.000 C 
ATOM     26  H   UNL     1     -20.108 -43.640  23.159  0.00  0.00    +0.000 HD
ENDROOT
BRANCH   1  27
ATOM     27  N   UNL     1     -17.718 -40.821  22.895  0.00  0.00    +0.000 N 
ATOM     28  C   UNL     1     -16.445 -41.151  23.049  0.00  0.00    +0.000 A 
ATOM     29  C   UNL     1     -15.722 -40.303  22.181  0.00  0.00    +0.000 A 
ATOM     30  N   UNL     1     -16.605 -39.534  21.565  0.00  0.00    +0.000 NA
ATOM     31  N   UNL     1     -17.768 -39.847  21.989  0.00  0.00    +0.000 NA
BRANCH  28  32
ATOM     32  C   UNL     1     -15.761 -42.116  23.879  0.00  0.00    +0.000 A 
ATOM     33  C   UNL     1     -15.563 -41.826  25.214  0.00  0.00    +0.000 A 
ATOM     34  C   UNL     1     -14.839 -42.630  26.066  0.00  0.00    +0.000 A 
ATOM     35  C   UNL     1     -14.273 -43.790  25.582  0.00  0.00    +0.000 A 
ATOM     36  C   UNL     1     -14.444 -44.114  24.260  0.00  0.00    +0.000 A 
ATOM     37  C   UNL     1     -15.179 -43.277  23.432  0.00  0.00    +0.000 A 
ENDBRANCH  28  32
ENDBRANCH   1  27
BRANCH  14  38
ATOM     38  C   UNL     1     -21.125 -39.365  22.875  0.00  0.00    +0.000 C 
ATOM     39  O   UNL     1     -22.104 -39.141  22.113  0.00  0.00    +0.000 OA
BRANCH  38  40
ATOM     40  O   UNL     1     -20.075 -38.463  22.770  0.00  0.00    +0.000 OA
ATOM     41  H   UNL     1     -20.131 -37.770  22.034  0.00  0.00    +0.000 HD
ENDBRANCH  38  40
ENDBRANCH  14  38
TORSDOF 4
ENDMDL
