MODEL 1
REMARK VINA RESULT:    -8.875      0.000      0.000
REMARK INTER + INTRA:         -12.187
REMARK INTER:                 -11.728
REMARK INTRA:                  -0.459
REMARK UNBOUND:                -0.459
REMARK  Name = 
REMARK  7 active torsions:
REMARK  status: ('A' for Active; 'I' for Inactive)
REMARK    1  A    between atoms: C_1  and  C_11
REMARK    2  A    between atoms: N_3  and  C_4
REMARK    3  A    between atoms: C_11  and  C_12
REMARK    4  A    between atoms: C_12  and  C_18
REMARK    5  A    between atoms: N_13  and  N_14
REMARK    6  A    between atoms: N_14  and  C_15
REMARK    7  A    between atoms: C_15  and  N_17
REMARK                            x       y       z     vdW  Elec       q    Type
REMARK                         _______ _______ _______ _____ _____    ______ ____
ROOT
ATOM      1  C   UNL     1     -13.682 -43.298  27.342  0.00  0.00    +0.000 C 
ATOM      2  O   UNL     1     -12.731 -42.492  27.300  0.00  0.00    +0.000 OA
ATOM      3  N   UNL     1     -13.541 -44.509  28.023  0.00  0.00    +0.000 N 
ATOM      4  H   UNL     1     -14.417 -45.130  27.999  0.00  0.00    +0.000 HD
ENDROOT
BRANCH   3   5
ATOM      5  C   UNL     1     -12.414 -45.007  28.723  0.00  0.00    +0.000 A 
ATOM      6  C   UNL     1     -12.376 -44.947  30.108  0.00  0.00    +0.000 A 
ATOM      7 BR   UNL     1     -13.869 -44.182  31.024  0.00  0.00    +0.000 Br
ATOM      8  C   UNL     1     -11.308 -45.417  30.817  0.00  0.00    +0.000 A 
ATOM      9  C   UNL     1     -10.235 -45.967  30.139  0.00  0.00    +0.000 A 
ATOM     10  C   UNL     1     -10.252 -46.037  28.772  0.00  0.00    +0.000 A 
ATOM     11  C   UNL     1     -11.346 -45.554  28.080  0.00  0.00    +0.000 A 
ENDBRANCH   3   5
BRANCH   1  12
ATOM     12  C   UNL     1     -14.935 -42.889  26.639  0.00  0.00    +0.000 C 
BRANCH  12  13
ATOM     13  C   UNL     1     -14.709 -42.651  25.205  0.00  0.00    +0.000 C 
ATOM     14  N   UNL     1     -14.854 -41.476  24.731  0.00  0.00    +0.000 NA
ATOM     15  C   UNL     1     -14.316 -43.752  24.311  0.00  0.00    +0.000 C 
BRANCH  14  16
ATOM     16  N   UNL     1     -14.679 -41.105  23.427  0.00  0.00    +0.000 N 
ATOM     17  H   UNL     1     -13.730 -41.062  23.013  0.00  0.00    +0.000 HD
BRANCH  16  18
ATOM     18  C   UNL     1     -15.792 -40.774  22.622  0.00  0.00    +0.000 C 
ATOM     19  S   UNL     1     -17.279 -41.301  23.080  0.00  0.00    +0.000 S 
BRANCH  18  20
ATOM     20  N   UNL     1     -15.643 -39.988  21.419  0.00  0.00    +0.000 N 
ATOM     21  H   UNL     1     -15.937 -40.348  20.488  0.00  0.00    +0.000 HD
ATOM     22  H   UNL     1     -15.219 -39.034  21.562  0.00  0.00    +0.000 HD
ENDBRANCH  18  20
ENDBRANCH  16  18
ENDBRANCH  14  16
ENDBRANCH  12  13
ENDBRANCH   1  12
TORSDOF 6
ENDMDL
