MODEL 1
REMARK VINA RESULT:   -10.394      0.000      0.000
REMARK INTER + INTRA:         -15.228
REMARK INTER:                 -14.951
REMARK INTRA:                  -0.277
REMARK UNBOUND:                -0.277
REMARK  Name = 
REMARK  10 active torsions:
REMARK  status: ('A' for Active; 'I' for Inactive)
REMARK    1  A    between atoms: N_2  and  C_19
REMARK    2  A    between atoms: C_15  and  C_18
REMARK    3  A    between atoms: C_19  and  C_20
REMARK    4  A    between atoms: C_20  and  O_22
REMARK    5  A    between atoms: O_22  and  N_23
REMARK    6  A    between atoms: C_24  and  C_25
REMARK    7  A    between atoms: C_25  and  O_27
REMARK    8  A    between atoms: C_30  and  C_31
REMARK    9  A    between atoms: C_34  and  S_35
REMARK   10  A    between atoms: S_35  and  C_36
REMARK                            x       y       z     vdW  Elec       q    Type
REMARK                         _______ _______ _______ _____ _____    ______ ____
ROOT
ATOM      1  C   UNL     1     -13.202 -44.419  27.897  0.00  0.00    +0.000 C 
ATOM      2  O   UNL     1     -12.299 -43.564  27.799  0.00  0.00    +0.000 OA
ENDROOT
BRANCH   1   3
ATOM      3  C   UNL     1     -13.270 -45.265  29.101  0.00  0.00    +0.000 C 
BRANCH   3   5
ATOM      4  C   UNL     1     -12.810 -43.926  31.136  0.00  0.00    +0.000 A 
ATOM      5  N   UNL     1     -12.418 -44.783  30.165  0.00  0.00    +0.000 N 
ATOM      6  C   UNL     1     -11.132 -45.103  30.354  0.00  0.00    +0.000 A 
ATOM      7  C   UNL     1     -10.684 -44.436  31.472  0.00  0.00    +0.000 A 
ATOM      8  C   UNL     1     -11.761 -43.687  31.967  0.00  0.00    +0.000 A 
ATOM      9  N   UNL     1     -11.901 -42.861  33.014  0.00  0.00    +0.000 NA
ATOM     10  C   UNL     1     -13.074 -42.266  33.254  0.00  0.00    +0.000 A 
ATOM     11  C   UNL     1     -14.131 -42.511  32.413  0.00  0.00    +0.000 A 
ATOM     12  N   UNL     1     -13.996 -43.335  31.363  0.00  0.00    +0.000 NA
ATOM     13  C   UNL     1     -15.350 -41.887  32.669  0.00  0.00    +0.000 A 
ATOM     14  C   UNL     1     -15.510 -41.037  33.740  0.00  0.00    +0.000 A 
ATOM     15  C   UNL     1     -14.455 -40.783  34.592  0.00  0.00    +0.000 A 
ATOM     16  C   UNL     1     -13.254 -41.410  34.324  0.00  0.00    +0.000 A 
ATOM     17  C   UNL     1      -9.403 -44.546  31.942  0.00  0.00    +0.000 A 
ATOM     18  C   UNL     1      -8.518 -45.363  31.263  0.00  0.00    +0.000 A 
ATOM     19  C   UNL     1      -8.920 -46.049  30.141  0.00  0.00    +0.000 A 
ATOM     20  C   UNL     1     -10.202 -45.916  29.702  0.00  0.00    +0.000 A 
ATOM     21  C   UNL     1      -7.112 -45.530  31.716  0.00  0.00    +0.000 C 
ENDBRANCH   3   5
ENDBRANCH   1   3
BRANCH   1  22
ATOM     22  O   UNL     1     -14.103 -44.542  26.878  0.00  0.00    +0.000 OA
BRANCH  22  23
ATOM     23  N   UNL     1     -14.654 -43.536  26.165  0.00  0.00    +0.000 NA
ATOM     24  C   UNL     1     -14.080 -43.245  24.922  0.00  0.00    +0.000 C 
ATOM     25  C   UNL     1     -13.116 -42.080  25.037  0.00  0.00    +0.000 C 
ATOM     26  S   UNL     1     -14.102 -41.047  26.199  0.00  0.00    +0.000 S 
ATOM     27  C   UNL     1     -15.117 -42.421  26.877  0.00  0.00    +0.000 C 
BRANCH  27  28
ATOM     28  C   UNL     1     -16.545 -42.111  26.790  0.00  0.00    +0.000 A 
ATOM     29  C   UNL     1     -17.152 -41.843  25.585  0.00  0.00    +0.000 A 
ATOM     30  C   UNL     1     -18.502 -41.556  25.580  0.00  0.00    +0.000 A 
ATOM     31  C   UNL     1     -19.273 -41.525  26.716  0.00  0.00    +0.000 A 
ATOM     32  C   UNL     1     -18.669 -41.793  27.921  0.00  0.00    +0.000 A 
ATOM     33  C   UNL     1     -17.302 -42.085  27.940  0.00  0.00    +0.000 A 
BRANCH  31  34
ATOM     34  S   UNL     1     -21.010 -41.154  26.691  0.00  0.00    +0.000 S 
ATOM     35  C   UNL     1     -21.448 -40.154  25.254  0.00  0.00    +0.000 C 
ENDBRANCH  31  34
ENDBRANCH  27  28
BRANCH  24  36
ATOM     36  C   UNL     1     -14.997 -43.102  23.784  0.00  0.00    +0.000 C 
ATOM     37  O   UNL     1     -15.626 -44.088  23.358  0.00  0.00    +0.000 OA
BRANCH  36  38
ATOM     38  O   UNL     1     -15.166 -41.875  23.182  0.00  0.00    +0.000 OA
ATOM     39  H   UNL     1     -14.520 -41.509  22.476  0.00  0.00    +0.000 HD
ENDBRANCH  36  38
ENDBRANCH  24  36
ENDBRANCH  22  23
ENDBRANCH   1  22
TORSDOF 8
ENDMDL
