MODEL 1
REMARK VINA RESULT:   -11.349      0.000      0.000
REMARK INTER + INTRA:         -18.338
REMARK INTER:                 -17.984
REMARK INTRA:                  -0.353
REMARK UNBOUND:                -0.353
REMARK  Name = 
REMARK  11 active torsions:
REMARK  status: ('A' for Active; 'I' for Inactive)
REMARK    1  A    between atoms: C_5  and  C_6
REMARK    2  A    between atoms: N_11  and  C_12
REMARK    3  A    between atoms: C_12  and  C_13
REMARK    4  A    between atoms: C_13  and  O_15
REMARK    5  A    between atoms: O_15  and  C_16
REMARK    6  A    between atoms: C_16  and  C_33
REMARK    7  A    between atoms: N_18  and  C_26
REMARK    8  A    between atoms: C_21  and  N_22
REMARK    9  A    between atoms: N_22  and  C_23
REMARK   10  A    between atoms: C_23  and  C_24
REMARK   11  A    between atoms: C_26  and  C_27
REMARK                            x       y       z     vdW  Elec       q    Type
REMARK                         _______ _______ _______ _____ _____    ______ ____
ROOT
ATOM      1  C   UNL     1     -10.492 -43.307  30.495  0.00  0.00    +0.000 C 
ATOM      2  C   UNL     1     -11.672 -42.824  31.284  0.00  0.00    +0.000 C 
ATOM      3  N   UNL     1     -12.716 -43.666  31.565  0.00  0.00    +0.000 NA
ATOM      4  C   UNL     1     -12.439 -45.012  31.984  0.00  0.00    +0.000 C 
ATOM      5  C   UNL     1     -11.217 -45.593  31.392  0.00  0.00    +0.000 C 
ATOM      6  C   UNL     1     -10.605 -44.848  30.309  0.00  0.00    +0.000 C 
ENDROOT
BRANCH   1   7
ATOM      7  C   UNL     1      -9.177 -43.110  31.232  0.00  0.00    +0.000 A 
ATOM      8  C   UNL     1      -9.227 -43.010  32.670  0.00  0.00    +0.000 A 
ATOM      9  C   UNL     1      -8.014 -42.852  33.298  0.00  0.00    +0.000 A 
ATOM     10  C   UNL     1      -6.822 -42.793  32.669  0.00  0.00    +0.000 A 
ATOM     11  C   UNL     1      -6.766 -42.888  31.303  0.00  0.00    +0.000 A 
ATOM     12  C   UNL     1      -8.005 -43.048  30.670  0.00  0.00    +0.000 A 
ENDBRANCH   1   7
BRANCH   6  13
ATOM     13  N   UNL     1      -9.287 -45.281  29.914  0.00  0.00    +0.000 NA
ATOM     14  H   UNL     1      -8.711 -45.582  30.750  0.00  0.00    +0.000 HD
BRANCH  13  15
ATOM     15  C   UNL     1      -9.380 -46.425  28.953  0.00  0.00    +0.000 C 
BRANCH  15  16
ATOM     16  C   UNL     1     -10.623 -46.147  28.205  0.00  0.00    +0.000 C 
ATOM     17  C   UNL     1     -11.691 -45.921  27.566  0.00  0.00    +0.000 C 
ENDBRANCH  15  16
ENDBRANCH  13  15
ENDBRANCH   6  13
BRANCH   1  18
ATOM     18  O   UNL     1     -10.334 -42.808  29.250  0.00  0.00    +0.000 OA
BRANCH  18  19
ATOM     19  C   UNL     1     -11.164 -41.999  28.463  0.00  0.00    +0.000 C 
ATOM     20  O   UNL     1     -10.859 -40.803  28.414  0.00  0.00    +0.000 OA
BRANCH  19  21
ATOM     21  C   UNL     1     -12.262 -42.724  27.798  0.00  0.00    +0.000 C 
BRANCH  21  32
ATOM     22  N   UNL     1     -16.547 -42.095  25.799  0.00  0.00    +0.000 N 
ATOM     23  C   UNL     1     -16.253 -42.419  24.607  0.00  0.00    +0.000 A 
ATOM     24  N   UNL     1     -17.376 -42.491  23.859  0.00  0.00    +0.000 NA
ATOM     25  N   UNL     1     -18.369 -42.188  24.651  0.00  0.00    +0.000 NA
ATOM     26  C   UNL     1     -17.918 -41.924  25.910  0.00  0.00    +0.000 A 
ATOM     27  C   UNL     1     -18.721 -41.593  27.098  0.00  0.00    +0.000 C 
ATOM     28  C   UNL     1     -14.882 -42.694  24.155  0.00  0.00    +0.000 A 
ATOM     29  C   UNL     1     -14.051 -42.524  25.255  0.00  0.00    +0.000 A 
ATOM     30  C   UNL     1     -14.304 -42.202  26.453  0.00  0.00    +0.000 A 
ATOM     31  N   UNL     1     -15.692 -41.944  26.823  0.00  0.00    +0.000 NA
ATOM     32  N   UNL     1     -13.498 -42.167  27.625  0.00  0.00    +0.000 N 
ATOM     33  H   UNL     1     -13.924 -41.645  28.480  0.00  0.00    +0.000 HD
ENDBRANCH  21  32
ENDBRANCH  19  21
ENDBRANCH  18  19
ENDBRANCH   1  18
BRANCH   3  34
ATOM     34  C   UNL     1     -14.059 -43.333  31.557  0.00  0.00    +0.000 C 
BRANCH  34  35
ATOM     35  C   UNL     1     -14.475 -42.339  32.576  0.00  0.00    +0.000 A 
ATOM     36  C   UNL     1     -13.720 -42.235  33.760  0.00  0.00    +0.000 A 
ATOM     37  C   UNL     1     -14.071 -41.317  34.704  0.00  0.00    +0.000 A 
ATOM     38  C   UNL     1     -15.143 -40.475  34.558  0.00  0.00    +0.000 A 
ATOM     39  C   UNL     1     -15.896 -40.547  33.430  0.00  0.00    +0.000 A 
ATOM     40  C   UNL     1     -15.536 -41.494  32.445  0.00  0.00    +0.000 A 
ENDBRANCH  34  35
ENDBRANCH   3  34
TORSDOF 10
ENDMDL
