MODEL 1
REMARK VINA RESULT:    -9.689      0.000      0.000
REMARK INTER + INTRA:         -14.344
REMARK INTER:                 -13.371
REMARK INTRA:                  -0.973
REMARK UNBOUND:                -0.973
REMARK  Name = 
REMARK  9 active torsions:
REMARK  status: ('A' for Active; 'I' for Inactive)
REMARK    1  A    between atoms: N_1  and  C_2
REMARK    2  A    between atoms: C_2  and  C_3
REMARK    3  A    between atoms: C_3  and  O_4
REMARK    4  A    between atoms: O_4  and  C_5
REMARK    5  A    between atoms: C_8  and  N_9
REMARK    6  A    between atoms: C_20  and  C_33
REMARK    7  A    between atoms: C_25  and  C_26
REMARK    8  A    between atoms: C_26  and  C_28
REMARK    9  A    between atoms: C_28  and  C_30
REMARK                            x       y       z     vdW  Elec       q    Type
REMARK                         _______ _______ _______ _____ _____    ______ ____
ROOT
ATOM      1  N   UNL     1     -21.283 -41.144  24.160  0.00  0.00    +0.000 NA
ATOM      2  C   UNL     1     -22.167 -41.478  25.210  0.00  0.00    +0.000 C 
ATOM      3  C   UNL     1     -21.635 -42.505  26.191  0.00  0.00    +0.000 C 
ATOM      4  C   UNL     1     -20.785 -41.930  27.273  0.00  0.00    +0.000 C 
ATOM      5  C   UNL     1     -19.959 -40.740  26.858  0.00  0.00    +0.000 C 
ATOM      6  C   UNL     1     -19.120 -41.054  25.643  0.00  0.00    +0.000 C 
ATOM      7  N   UNL     1     -19.921 -41.173  24.461  0.00  0.00    +0.000 N 
ATOM      8  C   UNL     1     -19.511 -41.374  23.099  0.00  0.00    +0.000 C 
ATOM      9  O   UNL     1     -20.423 -41.983  22.439  0.00  0.00    +0.000 OA
ATOM     10  C   UNL     1     -18.308 -41.052  22.291  0.00  0.00    +0.000 C 
ATOM     11  O   UNL     1     -17.217 -41.763  22.801  0.00  0.00    +0.000 OA
ATOM     12  C   UNL     1     -16.563 -42.066  23.965  0.00  0.00    +0.000 A 
ATOM     13  C   UNL     1     -16.994 -42.276  25.258  0.00  0.00    +0.000 A 
ATOM     14  C   UNL     1     -16.058 -42.575  26.243  0.00  0.00    +0.000 A 
ATOM     15  C   UNL     1     -14.713 -42.666  25.958  0.00  0.00    +0.000 A 
ATOM     16  C   UNL     1     -14.299 -42.457  24.675  0.00  0.00    +0.000 A 
ATOM     17  C   UNL     1     -15.205 -42.160  23.679  0.00  0.00    +0.000 A 
ATOM     18  C   UNL     1     -18.049 -39.560  22.167  0.00  0.00    +0.000 C 
ATOM     19  C   UNL     1     -18.305 -42.282  25.976  0.00  0.00    +0.000 C 
ENDROOT
BRANCH  15  20
ATOM     20  C   UNL     1     -13.733 -42.983  26.990  0.00  0.00    +0.000 C 
ATOM     21  O   UNL     1     -12.774 -42.163  27.158  0.00  0.00    +0.000 OA
BRANCH  20  22
ATOM     22  C   UNL     1     -13.856 -44.200  27.799  0.00  0.00    +0.000 C 
ATOM     23 CL   UNL     1     -12.742 -45.427  27.142  0.00  0.00    +0.000 Cl
ATOM     24  C   UNL     1     -13.432 -43.866  29.227  0.00  0.00    +0.000 C 
ENDBRANCH  20  22
ENDBRANCH  15  20
BRANCH   1  25
ATOM     25  C   UNL     1     -21.681 -39.896  23.560  0.00  0.00    +0.000 C 
BRANCH  25  26
ATOM     26  C   UNL     1     -23.024 -39.997  22.945  0.00  0.00    +0.000 C 
BRANCH  26  27
ATOM     27  O   UNL     1     -23.199 -39.782  21.607  0.00  0.00    +0.000 OA
BRANCH  27  28
ATOM     28  C   UNL     1     -22.598 -38.956  20.697  0.00  0.00    +0.000 A 
ATOM     29  C   UNL     1     -21.567 -39.299  19.863  0.00  0.00    +0.000 A 
ATOM     30  C   UNL     1     -21.015 -38.403  18.975  0.00  0.00    +0.000 A 
ATOM     31  C   UNL     1     -21.518 -37.125  18.927  0.00  0.00    +0.000 A 
ATOM     32  C   UNL     1     -22.569 -36.753  19.769  0.00  0.00    +0.000 A 
ATOM     33  C   UNL     1     -23.091 -37.661  20.635  0.00  0.00    +0.000 A 
BRANCH  31  34
ATOM     34  N   UNL     1     -20.973 -36.183  18.025  0.00  0.00    +0.000 N 
ATOM     35  H   UNL     1     -20.314 -36.462  17.258  0.00  0.00    +0.000 HD
ATOM     36  H   UNL     1     -21.223 -35.158  18.108  0.00  0.00    +0.000 HD
ENDBRANCH  31  34
ENDBRANCH  27  28
ENDBRANCH  26  27
ENDBRANCH  25  26
ENDBRANCH   1  25
TORSDOF 7
ENDMDL
