MODEL 1
REMARK VINA RESULT:    -7.204      0.000      0.000
REMARK INTER + INTRA:         -10.105
REMARK INTER:                  -9.309
REMARK INTRA:                  -0.796
REMARK UNBOUND:                -0.796
REMARK  Name = 
REMARK  9 active torsions:
REMARK  status: ('A' for Active; 'I' for Inactive)
REMARK    1  A    between atoms: C_1  and  N_26
REMARK    2  A    between atoms: C_3  and  C_22
REMARK    3  A    between atoms: C_13  and  C_19
REMARK    4  A    between atoms: C_15  and  C_18
REMARK    5  A    between atoms: C_22  and  C_23
REMARK    6  A    between atoms: C_23  and  C_24
REMARK    7  A    between atoms: C_24  and  C_25
REMARK    8  A    between atoms: C_27  and  C_29
REMARK    9  A    between atoms: C_29  and  C_30
REMARK                            x       y       z     vdW  Elec       q    Type
REMARK                         _______ _______ _______ _____ _____    ______ ____
ROOT
ATOM      1  C   UNL     1     -18.970 -41.873  25.970  0.00  0.00    +0.000 C 
ATOM      2  S   UNL     1     -20.491 -42.257  26.845  0.00  0.00    +0.000 S 
ATOM      3  C   UNL     1     -21.214 -42.075  25.196  0.00  0.00    +0.000 C 
ATOM      4  S   UNL     1     -19.575 -41.706  24.477  0.00  0.00    +0.000 S 
ATOM      5  C   UNL     1     -19.249 -41.453  22.740  0.00  0.00    +0.000 C 
ATOM      6  N   UNL     1     -18.297 -40.672  22.365  0.00  0.00    +0.000 NA
ATOM      7  N   UNL     1     -18.332 -39.828  21.208  0.00  0.00    +0.000 NA
ATOM      8  C   UNL     1     -19.349 -39.391  20.497  0.00  0.00    +0.000 C 
ATOM      9  N   UNL     1     -19.024 -38.554  19.396  0.00  0.00    +0.000 N 
ATOM     10  S   UNL     1     -20.281 -42.220  21.438  0.00  0.00    +0.000 S 
ATOM     11  C   UNL     1     -21.459 -40.942  20.910  0.00  0.00    +0.000 C 
ATOM     12  C   UNL     1     -20.761 -39.626  20.664  0.00  0.00    +0.000 C 
ATOM     13  C   UNL     1     -21.471 -38.462  20.515  0.00  0.00    +0.000 C 
ATOM     14  C   UNL     1     -22.933 -38.478  20.658  0.00  0.00    +0.000 C 
ATOM     15  C   UNL     1     -23.740 -38.461  21.699  0.00  0.00    +0.000 C 
ATOM     16  C   UNL     1     -23.478 -38.404  23.120  0.00  0.00    +0.000 C 
ATOM     17  C   UNL     1     -22.869 -38.943  24.104  0.00  0.00    +0.000 C 
ATOM     18  C   UNL     1     -25.235 -38.514  21.334  0.00  0.00    +0.000 C 
ATOM     19  C   UNL     1     -20.690 -37.254  20.154  0.00  0.00    +0.000 C 
ATOM     20  N   UNL     1     -22.193 -41.036  25.087  0.00  0.00    +0.000 NA
ATOM     21  N   UNL     1     -22.019 -40.043  24.317  0.00  0.00    +0.000 NA
ATOM     22  H   UNL     1     -19.420 -38.786  18.466  0.00  0.00    +0.000 HD
ATOM     23  H   UNL     1     -18.393 -37.728  19.417  0.00  0.00    +0.000 HD
ENDROOT
BRANCH   1  24
ATOM     24  N   UNL     1     -17.638 -41.759  26.500  0.00  0.00    +0.000 N 
ATOM     25  C   UNL     1     -16.476 -42.168  25.803  0.00  0.00    +0.000 C 
ATOM     26  O   UNL     1     -16.595 -42.662  24.653  0.00  0.00    +0.000 OA
ATOM     27  H   UNL     1     -17.464 -41.357  27.451  0.00  0.00    +0.000 HD
BRANCH  25  28
ATOM     28  C   UNL     1     -15.119 -42.023  26.408  0.00  0.00    +0.000 C 
ATOM     29  C   UNL     1     -14.332 -43.288  26.346  0.00  0.00    +0.000 C 
ENDBRANCH  25  28
ENDBRANCH   1  24
BRANCH   3  30
ATOM     30  C   UNL     1     -21.762 -43.353  24.607  0.00  0.00    +0.000 C 
BRANCH  30  31
ATOM     31  C   UNL     1     -23.263 -43.337  24.488  0.00  0.00    +0.000 C 
BRANCH  31  32
ATOM     32  C   UNL     1     -23.577 -43.453  22.990  0.00  0.00    +0.000 C 
ATOM     33  C   UNL     1     -24.427 -42.313  22.532  0.00  0.00    +0.000 C 
ENDBRANCH  31  32
ENDBRANCH  30  31
ENDBRANCH   3  30
TORSDOF 5
ENDMDL
