MODEL 1
REMARK VINA RESULT:   -10.996      0.000      0.000
REMARK INTER + INTRA:         -11.339
REMARK INTER:                 -12.282
REMARK INTRA:                   0.943
REMARK UNBOUND:                 0.943
REMARK  Name = 
REMARK  3 active torsions:
REMARK  status: ('A' for Active; 'I' for Inactive)
REMARK    1  A    between atoms: C_1  and  C_2
REMARK    2  A    between atoms: C_5  and  C_6
REMARK    3  A    between atoms: C_23  and  C_24
REMARK                            x       y       z     vdW  Elec       q    Type
REMARK                         _______ _______ _______ _____ _____    ______ ____
ROOT
ATOM      1  C   UNL     1     -12.796 -43.985  29.703  0.00  0.00    +0.000 C 
ATOM      2  O   UNL     1     -11.553 -44.494  29.795  0.00  0.00    +0.000 OA
ATOM      3  N   UNL     1     -13.330 -43.656  30.936  0.00  0.00    +0.000 N 
ATOM      4  C   UNL     1     -12.494 -43.753  32.161  0.00  0.00    +0.000 C 
ATOM      5  C   UNL     1     -12.879 -42.493  32.972  0.00  0.00    +0.000 C 
ATOM      6  C   UNL     1     -14.217 -42.841  33.591  0.00  0.00    +0.000 C 
ATOM      7  C   UNL     1     -15.010 -43.740  32.684  0.00  0.00    +0.000 C 
ATOM      8  C   UNL     1     -14.696 -43.336  31.224  0.00  0.00    +0.000 C 
ENDROOT
BRANCH   4   9
ATOM      9  C   UNL     1     -11.068 -43.719  31.888  0.00  0.00    +0.000 A 
ATOM     10  N   UNL     1     -10.350 -44.865  31.829  0.00  0.00    +0.000 NA
ATOM     11  C   UNL     1      -9.026 -44.851  31.592  0.00  0.00    +0.000 A 
ATOM     12  C   UNL     1      -8.382 -43.657  31.407  0.00  0.00    +0.000 A 
ATOM     13  C   UNL     1      -9.120 -42.467  31.468  0.00  0.00    +0.000 A 
ATOM     14  N   UNL     1     -10.418 -42.567  31.704  0.00  0.00    +0.000 NA
ATOM     15  C   UNL     1      -6.930 -43.561  31.147  0.00  0.00    +0.000 C 
ATOM     16  N   UNL     1      -6.256 -44.760  31.617  0.00  0.00    +0.000 NA
ATOM     17  C   UNL     1      -6.889 -45.897  30.964  0.00  0.00    +0.000 C 
ATOM     18  C   UNL     1      -8.269 -46.151  31.528  0.00  0.00    +0.000 C 
ATOM     19  H   UNL     1      -5.279 -44.721  31.210  0.00  0.00    +0.000 HD
ENDBRANCH   4   9
BRANCH   1  20
ATOM     20  C   UNL     1     -13.280 -43.904  28.373  0.00  0.00    +0.000 A 
ATOM     21  O   UNL     1     -14.082 -42.881  28.019  0.00  0.00    +0.000 OA
ATOM     22  C   UNL     1     -14.440 -42.945  26.786  0.00  0.00    +0.000 A 
ATOM     23  C   UNL     1     -13.885 -44.059  26.206  0.00  0.00    +0.000 A 
ATOM     24  C   UNL     1     -13.148 -44.654  27.250  0.00  0.00    +0.000 A 
ATOM     25  C   UNL     1     -12.455 -45.935  27.038  0.00  0.00    +0.000 C 
ATOM     26  C   UNL     1     -14.109 -44.370  24.889  0.00  0.00    +0.000 A 
ATOM     27  C   UNL     1     -14.895 -43.597  24.067  0.00  0.00    +0.000 A 
ATOM     28  C   UNL     1     -15.467 -42.457  24.647  0.00  0.00    +0.000 A 
ATOM     29  C   UNL     1     -15.234 -42.159  25.965  0.00  0.00    +0.000 A 
ENDBRANCH   1  20
TORSDOF 2
ENDMDL
