MODEL 1
REMARK VINA RESULT:   -10.090      0.000      0.000
REMARK INTER + INTRA:         -17.538
REMARK INTER:                 -15.693
REMARK INTRA:                  -1.845
REMARK UNBOUND:                -1.845
REMARK  Name = 
REMARK  11 active torsions:
REMARK  status: ('A' for Active; 'I' for Inactive)
REMARK    1  A    between atoms: C_2  and  C_12
REMARK    2  A    between atoms: N_3  and  C_7
REMARK    3  A    between atoms: C_5  and  C_6
REMARK    4  A    between atoms: C_7  and  C_8
REMARK    5  A    between atoms: C_8  and  C_9
REMARK    6  A    between atoms: C_9  and  O_11
REMARK    7  A    between atoms: C_12  and  N_13
REMARK    8  A    between atoms: N_13  and  C_14
REMARK    9  A    between atoms: N_13  and  C_22
REMARK   10  A    between atoms: C_14  and  C_15
REMARK   11  A    between atoms: C_22  and  C_23
REMARK                            x       y       z     vdW  Elec       q    Type
REMARK                         _______ _______ _______ _____ _____    ______ ____
ROOT
ATOM      1  N   UNL     1     -11.508 -45.165  30.383  0.00  0.00    +0.000 NA
ENDROOT
BRANCH   1   2
ATOM      2  C   UNL     1     -11.072 -45.109  29.051  0.00  0.00    +0.000 C 
BRANCH   2   4
ATOM      3  N   UNL     1     -12.919 -44.489  27.449  0.00  0.00    +0.000 NA
ATOM      4  C   UNL     1     -11.904 -44.141  28.291  0.00  0.00    +0.000 A 
ATOM      5  N   UNL     1     -11.824 -42.803  28.278  0.00  0.00    +0.000 N 
ATOM      6  N   UNL     1     -12.775 -42.349  27.443  0.00  0.00    +0.000 NA
ATOM      7  C   UNL     1     -13.462 -43.378  26.920  0.00  0.00    +0.000 A 
ATOM      8  C   UNL     1     -14.582 -43.271  25.961  0.00  0.00    +0.000 C 
BRANCH   5   9
ATOM      9  C   UNL     1     -10.878 -42.023  29.030  0.00  0.00    +0.000 C 
BRANCH   9  10
ATOM     10  C   UNL     1      -9.879 -41.451  28.033  0.00  0.00    +0.000 C 
BRANCH  10  11
ATOM     11  C   UNL     1      -8.643 -42.287  28.039  0.00  0.00    +0.000 C 
ATOM     12  O   UNL     1      -8.326 -43.017  29.009  0.00  0.00    +0.000 OA
BRANCH  11  13
ATOM     13  O   UNL     1      -7.807 -42.264  26.939  0.00  0.00    +0.000 OA
ATOM     14  H   UNL     1      -8.175 -42.441  25.995  0.00  0.00    +0.000 HD
ENDBRANCH  11  13
ENDBRANCH  10  11
ENDBRANCH   9  10
ENDBRANCH   5   9
ENDBRANCH   2   4
ENDBRANCH   1   2
BRANCH   1  15
ATOM     15  C   UNL     1     -12.889 -45.116  30.629  0.00  0.00    +0.000 C 
BRANCH  15  16
ATOM     16  C   UNL     1     -13.298 -44.238  31.714  0.00  0.00    +0.000 A 
ATOM     17  C   UNL     1     -12.848 -42.948  31.773  0.00  0.00    +0.000 A 
ATOM     18  C   UNL     1     -13.233 -42.099  32.809  0.00  0.00    +0.000 A 
ATOM     19  C   UNL     1     -14.087 -42.592  33.780  0.00  0.00    +0.000 A 
ATOM     20  F   UNL     1     -14.464 -41.753  34.796  0.00  0.00    +0.000 F 
ATOM     21  C   UNL     1     -14.537 -43.883  33.718  0.00  0.00    +0.000 A 
ATOM     22  C   UNL     1     -14.141 -44.699  32.688  0.00  0.00    +0.000 A 
ENDBRANCH  15  16
ENDBRANCH   1  15
BRANCH   1  23
ATOM     23  C   UNL     1     -10.694 -45.864  31.310  0.00  0.00    +0.000 C 
BRANCH  23  24
ATOM     24  C   UNL     1      -9.517 -45.039  31.691  0.00  0.00    +0.000 A 
ATOM     25  C   UNL     1      -9.626 -43.785  32.233  0.00  0.00    +0.000 A 
ATOM     26  C   UNL     1      -8.488 -43.067  32.570  0.00  0.00    +0.000 A 
ATOM     27  C   UNL     1      -7.236 -43.607  32.363  0.00  0.00    +0.000 A 
ATOM     28  C   UNL     1      -7.150 -44.870  31.817  0.00  0.00    +0.000 A 
ATOM     29  C   UNL     1      -8.283 -45.579  31.486  0.00  0.00    +0.000 A 
ENDBRANCH  23  24
ENDBRANCH   1  23
TORSDOF 10
ENDMDL
