MODEL 1
REMARK VINA RESULT:   -11.105      0.000      0.000
REMARK INTER + INTRA:         -13.487
REMARK INTER:                 -13.052
REMARK INTRA:                  -0.434
REMARK UNBOUND:                -0.434
REMARK  Name = 
REMARK  5 active torsions:
REMARK  status: ('A' for Active; 'I' for Inactive)
REMARK    1  A    between atoms: C_2  and  C_4
REMARK    2  A    between atoms: C_7  and  N_8
REMARK    3  A    between atoms: N_8  and  C_9
REMARK    4  A    between atoms: N_8  and  C_10
REMARK    5  A    between atoms: C_17  and  C_20
REMARK                            x       y       z     vdW  Elec       q    Type
REMARK                         _______ _______ _______ _____ _____    ______ ____
ROOT
ATOM      1  N   UNL     1     -12.306 -43.889  27.569  0.00  0.00    +0.000 N 
ATOM      2  C   UNL     1     -13.331 -44.306  26.698  0.00  0.00    +0.000 C 
ATOM      3  O   UNL     1     -13.372 -45.602  26.431  0.00  0.00    +0.000 OA
ATOM      4  C   UNL     1     -11.430 -44.947  28.139  0.00  0.00    +0.000 C 
ATOM      5  C   UNL     1     -10.944 -44.561  29.481  0.00  0.00    +0.000 A 
ATOM      6  C   UNL     1     -10.475 -43.230  29.643  0.00  0.00    +0.000 A 
ATOM      7  N   UNL     1     -10.029 -42.867  30.814  0.00  0.00    +0.000 NA
ATOM      8  C   UNL     1      -9.976 -43.669  31.902  0.00  0.00    +0.000 A 
ATOM      9  N   UNL     1     -10.414 -44.932  31.774  0.00  0.00    +0.000 NA
ATOM     10  C   UNL     1     -10.893 -45.370  30.573  0.00  0.00    +0.000 A 
ATOM     11  C   UNL     1     -10.579 -42.393  28.395  0.00  0.00    +0.000 C 
ATOM     12  C   UNL     1     -12.025 -42.541  27.888  0.00  0.00    +0.000 C 
ENDROOT
BRANCH   8  13
ATOM     13  C   UNL     1      -9.446 -43.109  33.147  0.00  0.00    +0.000 C 
ATOM     14  C   UNL     1     -10.249 -41.930  33.654  0.00  0.00    +0.000 C 
ATOM     15  C   UNL     1      -9.739 -41.625  35.043  0.00  0.00    +0.000 C 
ATOM     16  N   UNL     1      -8.347 -41.433  35.136  0.00  0.00    +0.000 NA
ATOM     17  C   UNL     1      -7.512 -42.252  34.356  0.00  0.00    +0.000 C 
ATOM     18  C   UNL     1      -8.017 -42.609  32.998  0.00  0.00    +0.000 C 
ATOM     19  H   UNL     1      -8.005 -40.513  35.411  0.00  0.00    +0.000 HD
ENDBRANCH   8  13
BRANCH   2  20
ATOM     20  C   UNL     1     -14.336 -43.495  26.062  0.00  0.00    +0.000 A 
ATOM     21  C   UNL     1     -14.350 -43.488  24.643  0.00  0.00    +0.000 A 
ATOM     22  C   UNL     1     -15.289 -42.791  23.948  0.00  0.00    +0.000 A 
ATOM     23  C   UNL     1     -16.279 -42.055  24.567  0.00  0.00    +0.000 A 
ATOM     24  C   UNL     1     -16.260 -42.067  25.939  0.00  0.00    +0.000 A 
ATOM     25  C   UNL     1     -15.309 -42.774  26.679  0.00  0.00    +0.000 A 
BRANCH  23  26
ATOM     26  N   UNL     1     -17.270 -41.318  23.877  0.00  0.00    +0.000 N 
ATOM     27  C   UNL     1     -16.970 -40.585  22.640  0.00  0.00    +0.000 C 
ATOM     28  C   UNL     1     -18.634 -41.253  24.366  0.00  0.00    +0.000 C 
ENDBRANCH  23  26
ENDBRANCH   2  20
TORSDOF 3
ENDMDL
