MODEL 1
REMARK VINA RESULT:    -9.605      0.000      0.000
REMARK INTER + INTRA:         -12.723
REMARK INTER:                 -11.290
REMARK INTRA:                  -1.434
REMARK UNBOUND:                -1.434
REMARK  Name = 
REMARK  7 active torsions:
REMARK  status: ('A' for Active; 'I' for Inactive)
REMARK    1  A    between atoms: N_1  and  C_31
REMARK    2  A    between atoms: C_5  and  C_22
REMARK    3  A    between atoms: C_15  and  C_16
REMARK    4  A    between atoms: C_16  and  C_17
REMARK    5  A    between atoms: C_16  and  C_18
REMARK    6  A    between atoms: C_16  and  C_19
REMARK    7  A    between atoms: C_31  and  C_32
REMARK                            x       y       z     vdW  Elec       q    Type
REMARK                         _______ _______ _______ _____ _____    ______ ____
ROOT
ATOM      1  N   UNL     1     -20.509 -42.131  25.087  0.00  0.00    +0.000 NA
ATOM      2  C   UNL     1     -20.688 -40.840  25.787  0.00  0.00    +0.000 C 
ATOM      3  C   UNL     1     -19.785 -40.802  27.007  0.00  0.00    +0.000 C 
ATOM      4  N   UNL     1     -18.696 -41.756  26.920  0.00  0.00    +0.000 NA
ATOM      5  C   UNL     1     -18.001 -41.586  25.702  0.00  0.00    +0.000 C 
ATOM      6  S   UNL     1     -19.114 -42.133  24.342  0.00  0.00    +0.000 S 
ATOM      7  C   UNL     1     -19.115 -41.140  22.907  0.00  0.00    +0.000 C 
ATOM      8  N   UNL     1     -18.205 -40.182  22.716  0.00  0.00    +0.000 NA
ATOM      9  N   UNL     1     -18.387 -39.541  21.535  0.00  0.00    +0.000 NA
ATOM     10  C   UNL     1     -19.372 -39.997  20.886  0.00  0.00    +0.000 C 
ATOM     11  N   UNL     1     -19.826 -39.539  19.608  0.00  0.00    +0.000 N 
ATOM     12  C   UNL     1     -19.944 -41.108  21.754  0.00  0.00    +0.000 C 
ATOM     13  C   UNL     1     -21.043 -41.773  21.417  0.00  0.00    +0.000 C 
ATOM     14  C   UNL     1     -21.897 -42.769  21.990  0.00  0.00    +0.000 C 
ATOM     15  C   UNL     1     -23.096 -42.735  22.569  0.00  0.00    +0.000 C 
ATOM     16  C   UNL     1     -23.962 -41.583  22.758  0.00  0.00    +0.000 C 
ATOM     17  C   UNL     1     -23.757 -40.411  23.299  0.00  0.00    +0.000 C 
ATOM     18  C   UNL     1     -22.072 -40.542  26.208  0.00  0.00    +0.000 C 
ATOM     19  C   UNL     1     -22.616 -39.422  25.296  0.00  0.00    +0.000 C 
ATOM     20  C   UNL     1     -22.496 -39.951  23.892  0.00  0.00    +0.000 C 
ATOM     21  H   UNL     1     -18.142 -41.820  27.774  0.00  0.00    +0.000 HD
ATOM     22  H   UNL     1     -18.538 -43.717  24.000  0.00  0.00    +0.000 HD
ATOM     23  H   UNL     1     -20.212 -38.569  19.574  0.00  0.00    +0.000 HD
ATOM     24  H   UNL     1     -19.788 -40.107  18.750  0.00  0.00    +0.000 HD
ENDROOT
BRANCH   5  25
ATOM     25  C   UNL     1     -16.694 -42.205  25.576  0.00  0.00    +0.000 A 
ATOM     26  C   UNL     1     -16.189 -42.598  24.346  0.00  0.00    +0.000 A 
ATOM     27  C   UNL     1     -14.946 -43.184  24.250  0.00  0.00    +0.000 A 
ATOM     28  C   UNL     1     -14.162 -43.401  25.371  0.00  0.00    +0.000 A 
ATOM     29  C   UNL     1     -14.655 -43.013  26.605  0.00  0.00    +0.000 A 
ATOM     30  C   UNL     1     -15.896 -42.429  26.685  0.00  0.00    +0.000 A 
ENDBRANCH   5  25
BRANCH  15  31
ATOM     31  C   UNL     1     -23.726 -44.044  23.074  0.00  0.00    +0.000 C 
ATOM     32  C   UNL     1     -22.840 -45.228  22.782  0.00  0.00    +0.000 C 
ATOM     33  C   UNL     1     -25.028 -44.234  22.248  0.00  0.00    +0.000 C 
ATOM     34  C   UNL     1     -24.112 -44.045  24.485  0.00  0.00    +0.000 C 
ENDBRANCH  15  31
BRANCH   1  35
ATOM     35  C   UNL     1     -20.831 -43.134  26.057  0.00  0.00    +0.000 C 
ATOM     36  C   UNL     1     -20.672 -44.554  25.629  0.00  0.00    +0.000 C 
ENDBRANCH   1  35
TORSDOF 3
ENDMDL
