MODEL 1
REMARK VINA RESULT:    -9.422      0.000      0.000
REMARK INTER + INTRA:         -11.249
REMARK INTER:                 -10.799
REMARK INTRA:                  -0.450
REMARK UNBOUND:                -0.450
REMARK  Name = 
REMARK  5 active torsions:
REMARK  status: ('A' for Active; 'I' for Inactive)
REMARK    1  A    between atoms: C_1  and  C_2
REMARK    2  A    between atoms: C_6  and  C_7
REMARK    3  A    between atoms: C_9  and  C_14
REMARK    4  A    between atoms: C_11  and  N_13
REMARK    5  A    between atoms: N_19  and  C_22
REMARK                            x       y       z     vdW  Elec       q    Type
REMARK                         _______ _______ _______ _____ _____    ______ ____
ROOT
ATOM      1  C   UNL     1     -13.011 -43.591  28.543  0.00  0.00    +0.000 C 
ATOM      2  O   UNL     1     -13.461 -44.542  29.355  0.00  0.00    +0.000 OA
ATOM      3  N   UNL     1     -11.916 -42.873  28.982  0.00  0.00    +0.000 N 
ATOM      4  C   UNL     1     -11.296 -43.251  30.276  0.00  0.00    +0.000 C 
ATOM      5  C   UNL     1      -9.804 -43.358  30.117  0.00  0.00    +0.000 C 
ATOM      6  O   UNL     1      -9.215 -42.562  29.200  0.00  0.00    +0.000 OA
ATOM      7  C   UNL     1      -9.873 -42.290  28.025  0.00  0.00    +0.000 C 
ATOM      8  C   UNL     1     -11.288 -41.765  28.373  0.00  0.00    +0.000 C 
ENDROOT
BRANCH   5   9
ATOM      9  C   UNL     1      -9.216 -42.996  31.462  0.00  0.00    +0.000 A 
ATOM     10  N   UNL     1     -10.000 -42.460  32.410  0.00  0.00    +0.000 NA
ATOM     11  C   UNL     1      -9.583 -42.104  33.635  0.00  0.00    +0.000 A 
ATOM     12  C   UNL     1      -8.262 -42.301  33.939  0.00  0.00    +0.000 A 
ATOM     13  C   UNL     1      -7.412 -42.849  32.999  0.00  0.00    +0.000 A 
ATOM     14  C   UNL     1      -7.886 -43.198  31.754  0.00  0.00    +0.000 A 
ATOM     15  C   UNL     1     -10.572 -41.520  34.583  0.00  0.00    +0.000 C 
BRANCH  13  16
ATOM     16  N   UNL     1      -6.046 -43.058  33.297  0.00  0.00    +0.000 N 
ATOM     17  H   UNL     1      -5.473 -42.249  33.606  0.00  0.00    +0.000 HD
ATOM     18  H   UNL     1      -5.670 -44.025  33.191  0.00  0.00    +0.000 HD
ENDBRANCH  13  16
ENDBRANCH   5   9
BRANCH   1  19
ATOM     19  C   UNL     1     -13.773 -43.481  27.315  0.00  0.00    +0.000 A 
ATOM     20  C   UNL     1     -14.914 -42.680  27.161  0.00  0.00    +0.000 A 
ATOM     21  N   UNL     1     -15.425 -42.820  25.929  0.00  0.00    +0.000 N 
ATOM     22  N   UNL     1     -14.662 -43.666  25.307  0.00  0.00    +0.000 NA
ATOM     23  C   UNL     1     -13.656 -44.093  26.095  0.00  0.00    +0.000 A 
ATOM     24  C   UNL     1     -16.625 -42.124  25.423  0.00  0.00    +0.000 C 
ENDBRANCH   1  19
TORSDOF 3
ENDMDL
