MODEL 1
REMARK VINA RESULT:    -9.220      0.000      0.000
REMARK INTER + INTRA:         -17.350
REMARK INTER:                 -15.688
REMARK INTRA:                  -1.662
REMARK UNBOUND:                -1.662
REMARK  Name = 
REMARK  14 active torsions:
REMARK  status: ('A' for Active; 'I' for Inactive)
REMARK    1  A    between atoms: C_3  and  C_10
REMARK    2  A    between atoms: C_4  and  C_8
REMARK    3  A    between atoms: C_5  and  N_7
REMARK    4  A    between atoms: C_17  and  C_20
REMARK    5  A    between atoms: C_20  and  C_21
REMARK    6  A    between atoms: C_21  and  N_22
REMARK    7  A    between atoms: N_22  and  C_33
REMARK    8  A    between atoms: C_23  and  C_25
REMARK    9  A    between atoms: C_25  and  C_26
REMARK   10  A    between atoms: C_29  and  C_32
REMARK   11  A    between atoms: C_33  and  C_34
REMARK   12  A    between atoms: C_33  and  C_40
REMARK   13  A    between atoms: C_43  and  C_46
REMARK   14  A    between atoms: C_46  and  N_47
REMARK                            x       y       z     vdW  Elec       q    Type
REMARK                         _______ _______ _______ _____ _____    ______ ____
ROOT
ATOM      1  N   UNL     1     -20.277 -41.285  24.124  0.00  0.00    +0.000 N 
ATOM      2  C   UNL     1     -19.201 -41.988  24.382  0.00  0.00    +0.000 C 
ATOM      3  O   UNL     1     -18.752 -42.974  24.971  0.00  0.00    +0.000 OA
ENDROOT
BRANCH   1   4
ATOM      4  C   UNL     1     -20.308 -40.283  23.076  0.00  0.00    +0.000 C 
BRANCH   4   5
ATOM      5  C   UNL     1     -20.619 -40.647  21.644  0.00  0.00    +0.000 C 
BRANCH   5  12
ATOM      6  C   UNL     1     -20.338 -37.524  19.566  0.00  0.00    +0.000 A 
ATOM      7  C   UNL     1     -21.173 -38.398  20.386  0.00  0.00    +0.000 A 
ATOM      8  C   UNL     1     -22.576 -38.076  20.558  0.00  0.00    +0.000 C 
ATOM      9  C   UNL     1     -22.935 -36.750  19.974  0.00  0.00    +0.000 C 
ATOM     10  C   UNL     1     -22.161 -35.991  19.278  0.00  0.00    +0.000 C 
ATOM     11  O   UNL     1     -20.862 -36.387  19.058  0.00  0.00    +0.000 OA
ATOM     12  C   UNL     1     -20.368 -39.426  20.767  0.00  0.00    +0.000 A 
ATOM     13  N   UNL     1     -19.163 -39.199  20.212  0.00  0.00    +0.000 NA
ATOM     14  N   UNL     1     -19.133 -38.118  19.528  0.00  0.00    +0.000 N 
ATOM     15  H   UNL     1     -18.328 -37.706  19.008  0.00  0.00    +0.000 HD
BRANCH   8  16
ATOM     16  C   UNL     1     -23.457 -38.942  19.653  0.00  0.00    +0.000 A 
ATOM     17  C   UNL     1     -23.469 -38.915  18.319  0.00  0.00    +0.000 A 
ATOM     18  C   UNL     1     -24.174 -39.871  17.545  0.00  0.00    +0.000 A 
ATOM     19  C   UNL     1     -24.886 -40.877  18.213  0.00  0.00    +0.000 A 
ATOM     20  C   UNL     1     -24.882 -40.902  19.547  0.00  0.00    +0.000 A 
ATOM     21  C   UNL     1     -24.191 -39.969  20.306  0.00  0.00    +0.000 A 
ATOM     22  F   UNL     1     -25.524 -41.808  17.415  0.00  0.00    +0.000 F 
ENDBRANCH   8  16
BRANCH  10  23
ATOM     23  N   UNL     1     -22.552 -34.733  18.692  0.00  0.00    +0.000 N 
ATOM     24  H   UNL     1     -22.098 -34.354  17.886  0.00  0.00    +0.000 HD
ATOM     25  H   UNL     1     -23.365 -34.201  19.146  0.00  0.00    +0.000 HD
ENDBRANCH  10  23
BRANCH   9  26
ATOM     26  C   UNL     1     -24.313 -36.242  20.227  0.00  0.00    +0.000 C 
ATOM     27  N   UNL     1     -25.368 -35.836  20.416  0.00  0.00    +0.000 NA
ENDBRANCH   9  26
ENDBRANCH   5  12
ENDBRANCH   4   5
ENDBRANCH   1   4
BRANCH   2  28
ATOM     28  C   UNL     1     -17.868 -41.401  23.661  0.00  0.00    +0.000 C 
BRANCH  28  29
ATOM     29  C   UNL     1     -16.758 -41.999  24.478  0.00  0.00    +0.000 A 
ATOM     30  C   UNL     1     -16.651 -41.839  25.840  0.00  0.00    +0.000 A 
ATOM     31  C   UNL     1     -15.559 -42.418  26.506  0.00  0.00    +0.000 A 
ATOM     32  C   UNL     1     -14.590 -43.143  25.838  0.00  0.00    +0.000 A 
ATOM     33  C   UNL     1     -14.694 -43.303  24.474  0.00  0.00    +0.000 A 
ATOM     34  C   UNL     1     -15.787 -42.718  23.857  0.00  0.00    +0.000 A 
ATOM     35  C   UNL     1     -13.460 -43.771  26.591  0.00  0.00    +0.000 C 
ENDBRANCH  28  29
ENDBRANCH   2  28
BRANCH   1  36
ATOM     36  C   UNL     1     -21.430 -41.292  25.156  0.00  0.00    +0.000 C 
BRANCH  36  37
ATOM     37  C   UNL     1     -22.241 -42.450  24.604  0.00  0.00    +0.000 A 
ATOM     38  N   UNL     1     -22.663 -43.335  25.484  0.00  0.00    +0.000 NA
ATOM     39  C   UNL     1     -23.478 -44.353  25.525  0.00  0.00    +0.000 A 
ATOM     40  C   UNL     1     -24.063 -44.477  24.150  0.00  0.00    +0.000 A 
ATOM     41  C   UNL     1     -23.682 -43.629  23.217  0.00  0.00    +0.000 A 
ATOM     42  C   UNL     1     -22.779 -42.600  23.368  0.00  0.00    +0.000 A 
ENDBRANCH  36  37
BRANCH  36  43
ATOM     43  C   UNL     1     -22.045 -40.048  25.383  0.00  0.00    +0.000 C 
ATOM     44  C   UNL     1     -23.447 -39.887  24.861  0.00  0.00    +0.000 C 
ATOM     45  C   UNL     1     -23.742 -38.375  25.033  0.00  0.00    +0.000 C 
ATOM     46  C   UNL     1     -24.185 -38.235  26.486  0.00  0.00    +0.000 C 
ATOM     47  C   UNL     1     -23.496 -39.244  27.346  0.00  0.00    +0.000 C 
ATOM     48  C   UNL     1     -22.165 -39.690  26.869  0.00  0.00    +0.000 C 
BRANCH  46  49
ATOM     49  C   UNL     1     -23.858 -36.807  26.867  0.00  0.00    +0.000 C 
BRANCH  49  50
ATOM     50  N   UNL     1     -25.038 -36.190  27.508  0.00  0.00    +0.000 NA
ATOM     51  H   UNL     1     -25.874 -36.833  27.349  0.00  0.00    +0.000 HD
ATOM     52  H   UNL     1     -24.912 -36.157  28.533  0.00  0.00    +0.000 HD
ENDBRANCH  49  50
ENDBRANCH  46  49
ENDBRANCH  36  43
ENDBRANCH   1  36
TORSDOF 13
ENDMDL
