MODEL 1
REMARK VINA RESULT:    -8.816      0.000      0.000
REMARK INTER + INTRA:         -13.635
REMARK INTER:                 -12.165
REMARK INTRA:                  -1.470
REMARK UNBOUND:                -1.470
REMARK  Name = 
REMARK  9 active torsions:
REMARK  status: ('A' for Active; 'I' for Inactive)
REMARK    1  A    between atoms: C_5  and  C_6
REMARK    2  A    between atoms: N_12  and  C_13
REMARK    3  A    between atoms: C_16  and  C_17
REMARK    4  A    between atoms: C_20  and  N_21
REMARK    5  A    between atoms: C_22  and  C_29
REMARK    6  A    between atoms: C_23  and  O_28
REMARK    7  A    between atoms: C_24  and  O_27
REMARK    8  A    between atoms: C_25  and  C_26
REMARK    9  A    between atoms: C_29  and  O_30
REMARK                            x       y       z     vdW  Elec       q    Type
REMARK                         _______ _______ _______ _____ _____    ______ ____
ROOT
ATOM      1  C   UNL     1     -10.720 -42.752  29.238  0.00  0.00    +0.000 A 
ATOM      2  C   UNL     1      -9.427 -42.804  28.796  0.00  0.00    +0.000 A 
ATOM      3  N   UNL     1      -8.435 -43.496  29.432  0.00  0.00    +0.000 NA
ATOM      4  C   UNL     1      -8.713 -44.168  30.551  0.00  0.00    +0.000 A 
ATOM      5  C   UNL     1     -10.018 -44.125  31.010  0.00  0.00    +0.000 A 
ATOM      6  C   UNL     1     -11.042 -43.445  30.406  0.00  0.00    +0.000 A 
ENDROOT
BRANCH   1  12
ATOM      7  N   UNL     1     -13.656 -42.131  27.055  0.00  0.00    +0.000 NA
ATOM      8  C   UNL     1     -12.721 -42.616  27.641  0.00  0.00    +0.000 A 
ATOM      9  S   UNL     1     -12.741 -44.328  27.029  0.00  0.00    +0.000 S 
ATOM     10  C   UNL     1     -14.191 -44.045  25.956  0.00  0.00    +0.000 A 
ATOM     11  C   UNL     1     -14.447 -42.731  26.207  0.00  0.00    +0.000 A 
ATOM     12  N   UNL     1     -11.723 -42.102  28.573  0.00  0.00    +0.000 N 
ATOM     13  H   UNL     1     -11.852 -41.063  28.721  0.00  0.00    +0.000 HD
BRANCH  11  14
ATOM     14  C   UNL     1     -15.606 -41.985  25.552  0.00  0.00    +0.000 C 
ATOM     15  C   UNL     1     -15.008 -40.787  24.847  0.00  0.00    +0.000 C 
ATOM     16  N   UNL     1     -14.547 -41.049  23.522  0.00  0.00    +0.000 NA
ATOM     17  C   UNL     1     -15.726 -41.444  22.740  0.00  0.00    +0.000 C 
ATOM     18  C   UNL     1     -16.098 -42.823  23.225  0.00  0.00    +0.000 C 
ATOM     19  C   UNL     1     -16.436 -42.860  24.695  0.00  0.00    +0.000 C 
ATOM     20  H   UNL     1     -13.913 -41.883  23.547  0.00  0.00    +0.000 HD
ENDBRANCH  11  14
ENDBRANCH   1  12
BRANCH   6  21
ATOM     21  N   UNL     1     -12.339 -43.434  30.995  0.00  0.00    +0.000 N 
ATOM     22  C   UNL     1     -12.955 -42.450  31.823  0.00  0.00    +0.000 C 
ATOM     23  C   UNL     1     -14.349 -42.940  32.146  0.00  0.00    +0.000 C 
ATOM     24  C   UNL     1     -14.630 -43.897  30.976  0.00  0.00    +0.000 C 
ATOM     25  C   UNL     1     -13.279 -44.511  30.812  0.00  0.00    +0.000 C 
ATOM     26  C   UNL     1     -13.059 -45.676  31.751  0.00  0.00    +0.000 C 
BRANCH  24  27
ATOM     27  O   UNL     1     -14.971 -43.212  29.812  0.00  0.00    +0.000 OA
ATOM     28  H   UNL     1     -14.861 -42.245  29.961  0.00  0.00    +0.000 HD
ENDBRANCH  24  27
BRANCH  23  29
ATOM     29  O   UNL     1     -15.296 -41.938  32.141  0.00  0.00    +0.000 OA
ATOM     30  H   UNL     1     -16.166 -42.271  32.426  0.00  0.00    +0.000 HD
ENDBRANCH  23  29
BRANCH  22  31
ATOM     31  C   UNL     1     -12.233 -42.306  33.170  0.00  0.00    +0.000 C 
BRANCH  31  32
ATOM     32  O   UNL     1     -12.985 -41.497  34.028  0.00  0.00    +0.000 OA
ATOM     33  H   UNL     1     -13.341 -41.977  34.788  0.00  0.00    +0.000 HD
ENDBRANCH  31  32
ENDBRANCH  22  31
ENDBRANCH   6  21
BRANCH   4  34
ATOM     34  C   UNL     1      -7.686 -44.906  31.245  0.00  0.00    +0.000 C 
ATOM     35  N   UNL     1      -6.840 -45.494  31.797  0.00  0.00    +0.000 NA
ENDBRANCH   4  34
TORSDOF 8
ENDMDL
