MODEL 1
REMARK VINA RESULT:    -9.197      0.000      0.000
REMARK INTER + INTRA:         -18.028
REMARK INTER:                 -15.918
REMARK INTRA:                  -2.109
REMARK UNBOUND:                -2.109
REMARK  Name = 
REMARK  15 active torsions:
REMARK  status: ('A' for Active; 'I' for Inactive)
REMARK    1  A    between atoms: C_1  and  O_19
REMARK    2  A    between atoms: C_2  and  O_15
REMARK    3  A    between atoms: C_5  and  C_7
REMARK    4  A    between atoms: C_7  and  N_8
REMARK    5  A    between atoms: N_8  and  C_9
REMARK    6  A    between atoms: C_9  and  C_10
REMARK    7  A    between atoms: O_15  and  C_16
REMARK    8  A    between atoms: C_16  and  C_17
REMARK    9  A    between atoms: O_19  and  C_20
REMARK   10  A    between atoms: C_20  and  C_21
REMARK   11  A    between atoms: C_21  and  C_22
REMARK   12  A    between atoms: C_23  and  C_28
REMARK   13  A    between atoms: C_26  and  N_27
REMARK   14  A    between atoms: C_28  and  C_29
REMARK   15  A    between atoms: C_28  and  C_30
REMARK                            x       y       z     vdW  Elec       q    Type
REMARK                         _______ _______ _______ _____ _____    ______ ____
ROOT
ATOM      1  C   UNL     1     -11.389 -43.620  29.143  0.00  0.00    +0.000 A 
ATOM      2  C   UNL     1     -11.532 -45.030  29.064  0.00  0.00    +0.000 A 
ATOM      3  C   UNL     1     -12.280 -45.559  28.059  0.00  0.00    +0.000 A 
ATOM      4  C   UNL     1     -12.919 -44.829  27.104  0.00  0.00    +0.000 A 
ATOM      5  C   UNL     1     -12.796 -43.417  27.158  0.00  0.00    +0.000 A 
ATOM      6  C   UNL     1     -12.054 -42.858  28.150  0.00  0.00    +0.000 A 
ENDROOT
BRANCH   5   7
ATOM      7  C   UNL     1     -13.521 -42.714  26.117  0.00  0.00    +0.000 C 
BRANCH   7   8
ATOM      8  N   UNL     1     -14.756 -43.350  25.647  0.00  0.00    +0.000 NA
ATOM      9  H   UNL     1     -14.548 -43.892  24.759  0.00  0.00    +0.000 HD
BRANCH   8  10
ATOM     10  C   UNL     1     -15.742 -42.307  25.424  0.00  0.00    +0.000 C 
BRANCH  10  11
ATOM     11  C   UNL     1     -16.724 -42.107  26.502  0.00  0.00    +0.000 A 
ATOM     12  O   UNL     1     -16.604 -42.167  27.790  0.00  0.00    +0.000 OA
ATOM     13  C   UNL     1     -17.748 -41.920  28.396  0.00  0.00    +0.000 A 
ATOM     14  C   UNL     1     -18.694 -41.677  27.406  0.00  0.00    +0.000 A 
ATOM     15  C   UNL     1     -18.073 -41.788  26.195  0.00  0.00    +0.000 A 
ENDBRANCH  10  11
ENDBRANCH   8  10
ENDBRANCH   7   8
ENDBRANCH   5   7
BRANCH   2  16
ATOM     16  O   UNL     1     -10.900 -45.834  30.025  0.00  0.00    +0.000 OA
BRANCH  16  17
ATOM     17  C   UNL     1      -9.503 -46.083  29.759  0.00  0.00    +0.000 C 
BRANCH  17  18
ATOM     18  C   UNL     1      -8.780 -46.315  31.031  0.00  0.00    +0.000 C 
ATOM     19  C   UNL     1      -7.791 -45.562  31.402  0.00  0.00    +0.000 C 
ENDBRANCH  17  18
ENDBRANCH  16  17
ENDBRANCH   2  16
BRANCH   1  20
ATOM     20  O   UNL     1     -10.674 -43.126  30.100  0.00  0.00    +0.000 OA
BRANCH  20  21
ATOM     21  C   UNL     1     -10.261 -42.556  31.183  0.00  0.00    +0.000 C 
BRANCH  21  22
ATOM     22  C   UNL     1     -10.627 -43.234  32.492  0.00  0.00    +0.000 C 
BRANCH  22  23
ATOM     23  C   UNL     1     -11.931 -42.753  33.026  0.00  0.00    +0.000 A 
ATOM     24  C   UNL     1     -13.190 -43.199  32.692  0.00  0.00    +0.000 A 
ATOM     25  N   UNL     1     -14.054 -42.422  33.398  0.00  0.00    +0.000 NA
ATOM     26  O   UNL     1     -13.407 -41.575  34.105  0.00  0.00    +0.000 OA
ATOM     27  C   UNL     1     -12.091 -41.725  33.923  0.00  0.00    +0.000 A 
BRANCH  27  28
ATOM     28  N   UNL     1     -11.184 -40.884  34.615  0.00  0.00    +0.000 N 
ATOM     29  H   UNL     1     -11.043 -39.892  34.267  0.00  0.00    +0.000 HD
ATOM     30  H   UNL     1     -10.637 -41.169  35.450  0.00  0.00    +0.000 HD
ENDBRANCH  27  28
BRANCH  24  31
ATOM     31  C   UNL     1     -13.539 -44.306  31.778  0.00  0.00    +0.000 C 
ATOM     32  C   UNL     1     -14.629 -43.849  30.805  0.00  0.00    +0.000 C 
ATOM     33  C   UNL     1     -14.221 -45.430  32.580  0.00  0.00    +0.000 C 
ENDBRANCH  24  31
ENDBRANCH  22  23
ENDBRANCH  21  22
ENDBRANCH  20  21
ENDBRANCH   1  20
TORSDOF 13
ENDMDL
