MODEL 1
REMARK VINA RESULT:    -9.469      0.000      0.000
REMARK INTER + INTRA:         -14.514
REMARK INTER:                 -13.344
REMARK INTRA:                  -1.171
REMARK UNBOUND:                -1.171
REMARK  Name = 
REMARK  9 active torsions:
REMARK  status: ('A' for Active; 'I' for Inactive)
REMARK    1  A    between atoms: C_5  and  O_8
REMARK    2  A    between atoms: O_8  and  C_9
REMARK    3  A    between atoms: C_9  and  C_10
REMARK    4  A    between atoms: C_9  and  C_27
REMARK    5  A    between atoms: C_10  and  C_11
REMARK    6  A    between atoms: N_13  and  C_14
REMARK    7  A    between atoms: N_16  and  C_17
REMARK    8  A    between atoms: C_27  and  N_28
REMARK    9  A    between atoms: N_28  and  C_29
REMARK                            x       y       z     vdW  Elec       q    Type
REMARK                         _______ _______ _______ _____ _____    ______ ____
ROOT
ATOM      1  C   UNL     1     -11.271 -43.528  29.337  0.00  0.00    +0.000 C 
ATOM      2  C   UNL     1     -11.803 -43.230  27.968  0.00  0.00    +0.000 C 
ATOM      3  N   UNL     1     -13.058 -43.946  27.743  0.00  0.00    +0.000 N 
ATOM      4  C   UNL     1     -13.259 -45.137  28.530  0.00  0.00    +0.000 C 
ATOM      5  C   UNL     1     -13.242 -44.788  30.020  0.00  0.00    +0.000 C 
ATOM      6  N   UNL     1     -12.442 -43.641  30.240  0.00  0.00    +0.000 NA
ATOM      7  H   UNL     1     -13.041 -42.779  30.093  0.00  0.00    +0.000 HD
ENDROOT
BRANCH   3   8
ATOM      8  C   UNL     1     -14.010 -43.509  26.809  0.00  0.00    +0.000 A 
ATOM      9  C   UNL     1     -13.907 -43.837  25.488  0.00  0.00    +0.000 A 
ATOM     10  C   UNL     1     -14.869 -43.378  24.577  0.00  0.00    +0.000 A 
ATOM     11  C   UNL     1     -15.904 -42.600  25.041  0.00  0.00    +0.000 A 
ATOM     12  C   UNL     1     -16.033 -42.254  26.380  0.00  0.00    +0.000 A 
ATOM     13  C   UNL     1     -15.061 -42.729  27.238  0.00  0.00    +0.000 A 
ATOM     14  F   UNL     1     -16.840 -42.157  24.148  0.00  0.00    +0.000 F 
ENDBRANCH   3   8
BRANCH   1  15
ATOM     15  C   UNL     1     -10.493 -44.749  29.469  0.00  0.00    +0.000 C 
ATOM     16  O   UNL     1     -10.039 -45.307  28.411  0.00  0.00    +0.000 OA
ATOM     17  N   UNL     1     -10.163 -45.417  30.683  0.00  0.00    +0.000 N 
ATOM     18  C   UNL     1      -9.373 -46.651  30.648  0.00  0.00    +0.000 C 
ATOM     19  H   UNL     1     -10.468 -45.016  31.592  0.00  0.00    +0.000 HD
ENDBRANCH   1  15
BRANCH   1  20
ATOM     20  C   UNL     1     -10.556 -42.303  29.925  0.00  0.00    +0.000 C 
BRANCH  20  21
ATOM     21  O   UNL     1      -9.647 -42.735  30.863  0.00  0.00    +0.000 OA
BRANCH  21  26
ATOM     22  C   UNL     1      -9.384 -41.832  34.911  0.00  0.00    +0.000 A 
ATOM     23  F   UNL     1      -9.324 -41.532  36.232  0.00  0.00    +0.000 F 
ATOM     24  C   UNL     1      -8.267 -42.241  34.222  0.00  0.00    +0.000 A 
ATOM     25  C   UNL     1      -8.370 -42.540  32.869  0.00  0.00    +0.000 A 
ATOM     26  C   UNL     1      -9.553 -42.439  32.200  0.00  0.00    +0.000 A 
ATOM     27  C   UNL     1     -10.681 -42.024  32.902  0.00  0.00    +0.000 A 
ATOM     28  C   UNL     1     -10.584 -41.731  34.224  0.00  0.00    +0.000 A 
ENDBRANCH  21  26
ENDBRANCH  20  21
BRANCH  20  29
ATOM     29  C   UNL     1     -10.044 -41.328  28.939  0.00  0.00    +0.000 C 
BRANCH  29  30
ATOM     30  N   UNL     1      -8.680 -41.436  28.554  0.00  0.00    +0.000 NA
ATOM     31  C   UNL     1      -8.448 -41.837  27.204  0.00  0.00    +0.000 C 
ATOM     32  H   UNL     1      -8.139 -41.990  29.243  0.00  0.00    +0.000 HD
ENDBRANCH  29  30
ENDBRANCH  20  29
ENDBRANCH   1  20
TORSDOF 7
ENDMDL
