MODEL 1
REMARK VINA RESULT:    -7.404      0.000      0.000
REMARK INTER + INTRA:         -13.171
REMARK INTER:                 -11.515
REMARK INTRA:                  -1.655
REMARK UNBOUND:                -1.655
REMARK  Name = 
REMARK  12 active torsions:
REMARK  status: ('A' for Active; 'I' for Inactive)
REMARK    1  A    between atoms: C_1  and  C_21
REMARK    2  A    between atoms: C_2  and  C_15
REMARK    3  A    between atoms: C_4  and  N_14
REMARK    4  A    between atoms: C_5  and  C_12
REMARK    5  A    between atoms: C_6  and  C_7
REMARK    6  A    between atoms: C_15  and  C_16
REMARK    7  A    between atoms: C_16  and  O_18
REMARK    8  A    between atoms: O_18  and  C_19
REMARK    9  A    between atoms: C_19  and  C_20
REMARK   10  A    between atoms: C_21  and  O_23
REMARK   11  A    between atoms: O_23  and  C_24
REMARK   12  A    between atoms: C_24  and  C_25
REMARK                            x       y       z     vdW  Elec       q    Type
REMARK                         _______ _______ _______ _____ _____    ______ ____
ROOT
ATOM      1  C   UNL     1     -10.217 -44.482  31.732  0.00  0.00    +0.000 C 
ATOM      2  C   UNL     1      -9.280 -43.821  32.319  0.00  0.00    +0.000 C 
ATOM      3  O   UNL     1      -9.565 -42.696  33.143  0.00  0.00    +0.000 OA
ATOM      4  C   UNL     1     -10.853 -42.280  33.329  0.00  0.00    +0.000 C 
ATOM      5  C   UNL     1     -11.835 -42.935  32.736  0.00  0.00    +0.000 C 
ATOM      6  C   UNL     1     -11.630 -44.142  31.859  0.00  0.00    +0.000 C 
ENDROOT
BRANCH   6   7
ATOM      7  C   UNL     1     -12.305 -43.802  30.536  0.00  0.00    +0.000 A 
ATOM      8  C   UNL     1     -13.514 -44.400  30.218  0.00  0.00    +0.000 A 
ATOM      9  S   UNL     1     -14.000 -43.700  28.708  0.00  0.00    +0.000 S 
ATOM     10  C   UNL     1     -12.380 -42.486  28.546  0.00  0.00    +0.000 A 
ATOM     11  C   UNL     1     -11.884 -42.921  29.664  0.00  0.00    +0.000 A 
ENDBRANCH   6   7
BRANCH   4  12
ATOM     12  N   UNL     1     -11.144 -41.130  34.163  0.00  0.00    +0.000 N 
ATOM     13  H   UNL     1     -10.350 -40.592  34.548  0.00  0.00    +0.000 HD
ATOM     14  H   UNL     1     -12.112 -40.889  34.345  0.00  0.00    +0.000 HD
ENDBRANCH   4  12
BRANCH   5  15
ATOM     15  C   UNL     1     -13.129 -42.406  32.844  0.00  0.00    +0.000 C 
ATOM     16  N   UNL     1     -14.341 -41.911  32.970  0.00  0.00    +0.000 NA
ENDBRANCH   5  15
BRANCH   1  17
ATOM     17  C   UNL     1      -9.831 -45.649  30.893  0.00  0.00    +0.000 C 
ATOM     18  O   UNL     1      -9.778 -46.831  31.314  0.00  0.00    +0.000 OA
BRANCH  17  19
ATOM     19  O   UNL     1      -9.488 -45.469  29.566  0.00  0.00    +0.000 OA
BRANCH  19  20
ATOM     20  C   UNL     1      -9.807 -46.370  28.562  0.00  0.00    +0.000 C 
ATOM     21  C   UNL     1     -11.129 -45.998  27.907  0.00  0.00    +0.000 C 
ENDBRANCH  19  20
ENDBRANCH  17  19
ENDBRANCH   1  17
BRANCH   2  22
ATOM     22  C   UNL     1      -7.782 -44.083  32.224  0.00  0.00    +0.000 C 
BRANCH  22  23
ATOM     23  C   UNL     1      -7.168 -43.128  31.290  0.00  0.00    +0.000 C 
ATOM     24  O   UNL     1      -6.322 -42.332  31.696  0.00  0.00    +0.000 OA
BRANCH  23  25
ATOM     25  O   UNL     1      -7.557 -43.111  29.955  0.00  0.00    +0.000 OA
BRANCH  25  26
ATOM     26  C   UNL     1      -8.376 -42.173  29.377  0.00  0.00    +0.000 C 
ATOM     27  C   UNL     1      -8.741 -42.302  27.929  0.00  0.00    +0.000 C 
ENDBRANCH  25  26
ENDBRANCH  23  25
ENDBRANCH  22  23
ENDBRANCH   2  22
TORSDOF 10
ENDMDL
