MODEL 1
REMARK VINA RESULT:   -10.573      0.000      0.000
REMARK INTER + INTRA:         -14.647
REMARK INTER:                 -13.664
REMARK INTRA:                  -0.983
REMARK UNBOUND:                -0.983
REMARK  Name = 
REMARK  7 active torsions:
REMARK  status: ('A' for Active; 'I' for Inactive)
REMARK    1  A    between atoms: C_3  and  C_7
REMARK    2  A    between atoms: C_5  and  C_6
REMARK    3  A    between atoms: C_7  and  C_8
REMARK    4  A    between atoms: C_8  and  C_9
REMARK    5  A    between atoms: C_9  and  O_15
REMARK    6  A    between atoms: O_15  and  N_16
REMARK    7  A    between atoms: C_19  and  C_27
REMARK                            x       y       z     vdW  Elec       q    Type
REMARK                         _______ _______ _______ _____ _____    ______ ____
ROOT
ATOM      1  C   UNL     1     -11.304 -44.588  30.257  0.00  0.00    +0.000 C 
ATOM      2  C   UNL     1     -10.170 -44.747  29.230  0.00  0.00    +0.000 C 
ATOM      3  C   UNL     1      -8.838 -44.373  29.795  0.00  0.00    +0.000 C 
ATOM      4  N   UNL     1      -8.459 -45.478  30.664  0.00  0.00    +0.000 NA
ATOM      5  C   UNL     1      -9.574 -46.310  31.007  0.00  0.00    +0.000 C 
ATOM      6  C   UNL     1     -10.830 -45.573  31.379  0.00  0.00    +0.000 C 
ATOM      7  H   UNL     1      -8.078 -45.057  31.533  0.00  0.00    +0.000 HD
ENDROOT
BRANCH   1   8
ATOM      8  C   UNL     1     -12.457 -45.320  29.620  0.00  0.00    +0.000 C 
BRANCH   8   9
ATOM      9  C   UNL     1     -12.499 -45.364  28.144  0.00  0.00    +0.000 C 
BRANCH   9  12
ATOM     10  N   UNL     1     -15.128 -42.969  27.504  0.00  0.00    +0.000 NA
ATOM     11  O   UNL     1     -14.384 -43.692  28.285  0.00  0.00    +0.000 OA
ATOM     12  C   UNL     1     -13.529 -44.402  27.592  0.00  0.00    +0.000 A 
ATOM     13  C   UNL     1     -13.758 -44.097  26.269  0.00  0.00    +0.000 A 
ATOM     14  C   UNL     1     -14.792 -43.169  26.208  0.00  0.00    +0.000 A 
ATOM     15  C   UNL     1     -15.391 -42.544  25.000  0.00  0.00    +0.000 C 
ENDBRANCH   9  12
ENDBRANCH   8   9
ENDBRANCH   1   8
BRANCH   1  16
ATOM     16  O   UNL     1     -11.457 -43.439  30.826  0.00  0.00    +0.000 OA
BRANCH  16  17
ATOM     17  N   UNL     1     -11.889 -42.932  31.883  0.00  0.00    +0.000 N 
ATOM     18  C   UNL     1     -13.228 -42.721  32.261  0.00  0.00    +0.000 C 
ATOM     19  O   UNL     1     -14.162 -42.978  31.481  0.00  0.00    +0.000 OA
ATOM     20  C   UNL     1     -13.662 -42.188  33.579  0.00  0.00    +0.000 C 
ATOM     21  O   UNL     1     -12.665 -41.713  34.397  0.00  0.00    +0.000 OA
ATOM     22  C   UNL     1     -11.328 -41.893  34.068  0.00  0.00    +0.000 A 
ATOM     23  C   UNL     1     -10.924 -42.468  32.887  0.00  0.00    +0.000 A 
ATOM     24  C   UNL     1      -9.582 -42.602  32.648  0.00  0.00    +0.000 A 
ATOM     25  C   UNL     1      -8.635 -42.186  33.542  0.00  0.00    +0.000 A 
ATOM     26  C   UNL     1      -9.051 -41.611  34.725  0.00  0.00    +0.000 A 
ATOM     27  C   UNL     1     -10.379 -41.456  35.007  0.00  0.00    +0.000 A 
ATOM     28  C   UNL     1     -14.693 -41.094  33.235  0.00  0.00    +0.000 C 
ENDBRANCH  16  17
ENDBRANCH   1  16
TORSDOF 5
ENDMDL
