MODEL 1
REMARK VINA RESULT:    -8.273      0.000      0.000
REMARK INTER + INTRA:         -10.456
REMARK INTER:                  -9.966
REMARK INTRA:                  -0.490
REMARK UNBOUND:                -0.490
REMARK  Name = 
REMARK  6 active torsions:
REMARK  status: ('A' for Active; 'I' for Inactive)
REMARK    1  A    between atoms: C_1  and  C_8
REMARK    2  A    between atoms: C_3  and  C_6
REMARK    3  A    between atoms: C_10  and  C_31
REMARK    4  A    between atoms: C_16  and  C_17
REMARK    5  A    between atoms: C_27  and  C_30
REMARK    6  A    between atoms: C_31  and  O_33
REMARK                            x       y       z     vdW  Elec       q    Type
REMARK                         _______ _______ _______ _____ _____    ______ ____
ROOT
ATOM      1  C   UNL     1     -22.407 -42.710  24.241  0.00  0.00    +0.000 C 
ATOM      2  C   UNL     1     -22.782 -42.064  25.315  0.00  0.00    +0.000 C 
ATOM      3  C   UNL     1     -22.484 -40.799  24.594  0.00  0.00    +0.000 C 
ATOM      4  N   UNL     1     -22.089 -41.536  23.484  0.00  0.00    +0.000 N 
ATOM      5  C   UNL     1     -21.590 -41.141  22.167  0.00  0.00    +0.000 C 
ATOM      6  C   UNL     1     -22.371 -41.626  21.012  0.00  0.00    +0.000 C 
ATOM      7  C   UNL     1     -23.077 -40.941  20.129  0.00  0.00    +0.000 C 
ATOM      8  N   UNL     1     -23.905 -41.042  18.952  0.00  0.00    +0.000 NA
ATOM      9  C   UNL     1     -24.231 -39.827  18.878  0.00  0.00    +0.000 C 
ATOM     10  C   UNL     1     -25.044 -38.901  18.036  0.00  0.00    +0.000 C 
ATOM     11  C   UNL     1     -23.442 -39.551  20.098  0.00  0.00    +0.000 C 
ATOM     12  C   UNL     1     -22.434 -38.505  19.868  0.00  0.00    +0.000 C 
ATOM     13  C   UNL     1     -21.572 -38.620  18.672  0.00  0.00    +0.000 C 
ATOM     14  N   UNL     1     -20.212 -38.312  18.964  0.00  0.00    +0.000 NA
ATOM     15  C   UNL     1     -19.762 -38.703  20.283  0.00  0.00    +0.000 C 
ATOM     16  C   UNL     1     -20.038 -40.106  20.576  0.00  0.00    +0.000 C 
ATOM     17  C   UNL     1     -20.452 -40.419  22.024  0.00  0.00    +0.000 C 
ATOM     18  C   UNL     1     -19.559 -39.922  23.029  0.00  0.00    +0.000 C 
ATOM     19  C   UNL     1     -18.677 -40.456  23.881  0.00  0.00    +0.000 C 
ATOM     20  C   UNL     1     -18.249 -41.814  24.155  0.00  0.00    +0.000 C 
ATOM     21  C   UNL     1     -18.641 -42.640  25.120  0.00  0.00    +0.000 C 
ATOM     22  C   UNL     1     -19.560 -42.548  26.210  0.00  0.00    +0.000 C 
ATOM     23  C   UNL     1     -17.081 -42.397  23.310  0.00  0.00    +0.000 C 
ATOM     24  C   UNL     1     -21.574 -39.913  25.289  0.00  0.00    +0.000 C 
ATOM     25  C   UNL     1     -20.650 -40.303  26.187  0.00  0.00    +0.000 C 
ATOM     26  C   UNL     1     -20.361 -41.621  26.644  0.00  0.00    +0.000 C 
ATOM     27  H   UNL     1     -20.044 -37.307  18.760  0.00  0.00    +0.000 HD
ENDROOT
BRANCH   1  28
ATOM     28  C   UNL     1     -22.372 -44.185  24.027  0.00  0.00    +0.000 A 
ATOM     29  O   UNL     1     -22.737 -44.786  22.924  0.00  0.00    +0.000 OA
ATOM     30  C   UNL     1     -22.610 -46.070  22.996  0.00  0.00    +0.000 A 
ATOM     31  C   UNL     1     -22.113 -46.369  24.264  0.00  0.00    +0.000 A 
ATOM     32  C   UNL     1     -21.977 -45.150  24.882  0.00  0.00    +0.000 A 
BRANCH  30  33
ATOM     33  C   UNL     1     -22.910 -47.077  21.984  0.00  0.00    +0.000 C 
ATOM     34  O   UNL     1     -22.483 -48.254  22.081  0.00  0.00    +0.000 OA
ENDBRANCH  30  33
ENDBRANCH   1  28
BRANCH   3  35
ATOM     35  C   UNL     1     -23.828 -40.092  24.498  0.00  0.00    +0.000 C 
ATOM     36  O   UNL     1     -24.192 -39.243  25.345  0.00  0.00    +0.000 OA
BRANCH  35  37
ATOM     37  O   UNL     1     -24.696 -40.373  23.460  0.00  0.00    +0.000 OA
ATOM     38  H   UNL     1     -25.284 -39.664  23.017  0.00  0.00    +0.000 HD
ENDBRANCH  35  37
ENDBRANCH   3  35
TORSDOF 4
ENDMDL
