MODEL 1
REMARK VINA RESULT:    -7.170      0.000      0.000
REMARK INTER + INTRA:          -8.414
REMARK INTER:                  -8.009
REMARK INTRA:                  -0.406
REMARK UNBOUND:                -0.406
REMARK  Name = 
REMARK  4 active torsions:
REMARK  status: ('A' for Active; 'I' for Inactive)
REMARK    1  A    between atoms: C_1  and  S_2
REMARK    2  A    between atoms: C_21  and  C_24
REMARK    3  A    between atoms: C_24  and  C_25
REMARK    4  A    between atoms: C_29  and  C_30
REMARK                            x       y       z     vdW  Elec       q    Type
REMARK                         _______ _______ _______ _____ _____    ______ ____
ROOT
ATOM      1  C   UNL     1     -22.927 -40.818  20.484  0.00  0.00    +0.000 C 
ATOM      2  C   UNL     1     -22.033 -41.365  21.009  0.00  0.00    +0.000 C 
ATOM      3  C   UNL     1     -21.550 -42.500  21.695  0.00  0.00    +0.000 C 
ATOM      4  N   UNL     1     -20.433 -42.247  22.191  0.00  0.00    +0.000 NA
ATOM      5  S   UNL     1     -20.309 -40.520  21.604  0.00  0.00    +0.000 S 
ATOM      6  C   UNL     1     -22.919 -40.107  21.983  0.00  0.00    +0.000 C 
ATOM      7  O   UNL     1     -22.810 -41.153  22.908  0.00  0.00    +0.000 OA
ATOM      8  C   UNL     1     -23.950 -41.365  23.731  0.00  0.00    +0.000 C 
ATOM      9  C   UNL     1     -23.982 -41.277  25.034  0.00  0.00    +0.000 C 
ATOM     10  C   UNL     1     -22.880 -40.964  25.918  0.00  0.00    +0.000 C 
ATOM     11  C   UNL     1     -22.422 -38.875  22.266  0.00  0.00    +0.000 C 
ATOM     12  N   UNL     1     -22.548 -38.837  23.806  0.00  0.00    +0.000 NA
ATOM     13  C   UNL     1     -21.506 -39.601  24.384  0.00  0.00    +0.000 C 
ATOM     14  C   UNL     1     -21.802 -40.270  25.693  0.00  0.00    +0.000 C 
ATOM     15  C   UNL     1     -20.741 -40.331  26.753  0.00  0.00    +0.000 C 
ATOM     16  C   UNL     1     -19.612 -41.067  26.652  0.00  0.00    +0.000 C 
ATOM     17  C   UNL     1     -19.158 -41.948  25.584  0.00  0.00    +0.000 C 
ATOM     18  C   UNL     1     -19.735 -43.026  25.014  0.00  0.00    +0.000 C 
ATOM     19  C   UNL     1     -20.970 -43.742  25.177  0.00  0.00    +0.000 C 
ATOM     20  N   UNL     1     -21.121 -40.002  20.949  0.00  0.00    +0.000 NA
ATOM     21  C   UNL     1     -22.254 -43.743  21.921  0.00  0.00    +0.000 C 
ATOM     22  C   UNL     1     -22.349 -44.351  23.079  0.00  0.00    +0.000 C 
ATOM     23  C   UNL     1     -21.954 -44.235  24.436  0.00  0.00    +0.000 C 
ATOM     24  C   UNL     1     -23.008 -44.865  25.468  0.00  0.00    +0.000 C 
ATOM     25  H   UNL     1     -22.524 -37.814  23.993  0.00  0.00    +0.000 HD
ENDROOT
BRANCH   1  26
ATOM     26  S   UNL     1     -24.068 -40.720  19.349  0.00  0.00    +0.000 S 
ATOM     27  O   UNL     1     -23.938 -39.787  18.170  0.00  0.00    +0.000 OA
ATOM     28  O   UNL     1     -25.465 -40.377  19.932  0.00  0.00    +0.000 OA
ATOM     29 CL   UNL     1     -24.462 -42.592  18.422  0.00  0.00    +0.000 Cl
ENDBRANCH   1  26
BRANCH  17  30
ATOM     30  C   UNL     1     -17.776 -41.577  25.057  0.00  0.00    +0.000 C 
ATOM     31  C   UNL     1     -16.712 -42.177  25.990  0.00  0.00    +0.000 C 
ENDBRANCH  17  30
TORSDOF 2
ENDMDL
