REMARK  Name = =
REMARK  2 active torsions:
REMARK  status: ('A' for Active; 'I' for Inactive)
REMARK    1  A    between atoms: N_1  and  C_21
REMARK    2  A    between atoms: N_20  and  C_34
REMARK                            x       y       z     vdW  Elec       q    Type
REMARK                         _______ _______ _______ _____ _____    ______ ____
ROOT
ATOM      1  N   UNL     1     -15.599 -41.988  27.713  0.00  0.00    -0.258 NA
ATOM      2  C   UNL     1     -15.012 -42.414  26.520  0.00  0.00    +0.091 C 
ATOM      3  C   UNL     1     -16.020 -42.864  25.508  0.00  0.00    +0.090 C 
ATOM      4  N   UNL     1     -16.413 -41.766  24.685  0.00  0.00    -0.271 NA
ATOM      5  C   UNL     1     -17.739 -41.835  24.160  0.00  0.00    +0.073 C 
ATOM      6  C   UNL     1     -17.777 -40.791  23.054  0.00  0.00    +0.019 C 
ATOM      7  C   UNL     1     -16.312 -40.460  22.804  0.00  0.00    +0.019 C 
ATOM      8  C   UNL     1     -15.524 -41.493  23.601  0.00  0.00    +0.072 C 
ATOM      9  C   UNL     1     -18.156 -43.182  23.665  0.00  0.00    +0.085 C 
ATOM     10  N   UNL     1     -19.217 -43.746  24.491  0.00  0.00    -0.295 NA
ATOM     11  C   UNL     1     -20.502 -43.596  23.851  0.00  0.00    +0.086 C 
ATOM     12  C   UNL     1     -21.661 -43.683  24.768  0.00  0.00    +0.086 C 
ATOM     13  N   UNL     1     -21.467 -43.216  26.090  0.00  0.00    -0.294 NA
ATOM     14  C   UNL     1     -21.746 -41.839  26.325  0.00  0.00    +0.101 C 
ATOM     15  C   UNL     1     -21.118 -41.381  27.627  0.00  0.00    +0.159 C 
ATOM     16  O   UNL     1     -19.793 -41.728  27.611  0.00  0.00    -0.352 OA
ATOM     17  C   UNL     1     -18.913 -40.661  27.603  0.00  0.00    +0.144 C 
ATOM     18  C   UNL     1     -17.725 -41.004  28.446  0.00  0.00    +0.049 C 
ATOM     19  C   UNL     1     -16.414 -40.834  27.691  0.00  0.00    +0.076 C 
ATOM     20  H   UNL     1     -19.233 -43.264  25.390  0.00  0.00    +0.123 HD
ATOM     21  H   UNL     1     -20.491 -43.381  26.337  0.00  0.00    +0.123 HD
ENDROOT
BRANCH   1  23
ATOM     22  N   UNL     1     -14.354 -43.627  29.095  0.00  0.00    -0.296 N 
ATOM     23  C   UNL     1     -15.163 -42.479  28.928  0.00  0.00    +0.124 C 
ATOM     24  C   UNL     1     -16.321 -43.298  29.537  0.00  0.00    +0.058 C 
ATOM     25  C   UNL     1     -15.143 -43.818  30.320  0.00  0.00    +0.108 C 
BRANCH  22  36
ATOM     26  N   UNL     1      -9.856 -44.231  27.672  0.00  0.00    -0.245 NA
ATOM     27  C   UNL     1     -11.055 -44.803  27.936  0.00  0.00    +0.082 C 
ATOM     28  C   UNL     1     -12.088 -43.959  28.373  0.00  0.00    +0.031 C 
ATOM     29  C   UNL     1     -11.881 -42.606  28.526  0.00  0.00    +0.004 C 
ATOM     30  C   UNL     1     -10.649 -42.060  28.248  0.00  0.00    +0.018 C 
ATOM     31  C   UNL     1      -9.649 -42.902  27.820  0.00  0.00    +0.081 C 
ATOM     32  C   UNL     1      -8.382 -42.445  27.519  0.00  0.00    +0.019 C 
ATOM     33  C   UNL     1      -8.103 -41.082  27.652  0.00  0.00    +0.002 C 
ATOM     34  C   UNL     1      -9.128 -40.265  28.082  0.00  0.00    +0.000 C 
ATOM     35  C   UNL     1     -10.393 -40.723  28.384  0.00  0.00    +0.001 C 
ATOM     36  C   UNL     1     -13.328 -44.478  28.658  0.00  0.00    +0.050 C 
ATOM     37  C   UNL     1     -13.487 -45.862  28.488  0.00  0.00    +0.015 C 
ATOM     38  C   UNL     1     -12.477 -46.681  28.061  0.00  0.00    +0.003 C 
ATOM     39  C   UNL     1     -11.259 -46.153  27.783  0.00  0.00    +0.019 C 
ENDBRANCH  22  36
ENDBRANCH   1  23
TORSDOF 2
