REMARK  Name = =
REMARK  0 active torsions:
REMARK  status: ('A' for Active; 'I' for Inactive)
REMARK                            x       y       z     vdW  Elec       q    Type
REMARK                         _______ _______ _______ _____ _____    ______ ____
ROOT
ATOM      1  C   UNL     1      51.768 155.806  29.167  0.00  0.00    +0.069 C 
ATOM      2  N   UNL     1      50.366 156.053  29.378  0.00  0.00    -0.297 NA
ATOM      3  C   UNL     1      50.137 157.142  30.304  0.00  0.00    +0.069 C 
ATOM      4  C   UNL     1      50.651 158.406  29.600  0.00  0.00    +0.017 C 
ATOM      5  C   UNL     1      52.157 158.222  29.497  0.00  0.00    +0.003 C 
ATOM      6  C   UNL     1      52.399 157.043  28.569  0.00  0.00    +0.017 C 
ATOM      7  H   UNL     1      49.936 155.207  29.752  0.00  0.00    +0.123 HD
ENDROOT
TORSDOF 0
