REMARK  Name = =
REMARK  0 active torsions:
REMARK  status: ('A' for Active; 'I' for Inactive)
REMARK                            x       y       z     vdW  Elec       q    Type
REMARK                         _______ _______ _______ _____ _____    ______ ____
ROOT
ATOM      1  N   UNL     1      52.779 156.627  27.404  0.00  0.00    -0.260 N 
ATOM      2  C   UNL     1      52.304 156.237  28.601  0.00  0.00    +0.332 A 
ATOM      3  O   UNL     1      51.903 157.083  29.459  0.00  0.00    -0.247 OA
ATOM      4  N   UNL     1      52.261 154.916  28.877  0.00  0.00    -0.260 N 
ATOM      5  C   UNL     1      52.687 154.028  27.961  0.00  0.00    +0.332 A 
ATOM      6  O   UNL     1      52.624 152.812  28.270  0.00  0.00    -0.247 OA
ATOM      7  N   UNL     1      53.168 154.398  26.751  0.00  0.00    -0.260 N 
ATOM      8  C   UNL     1      53.202 155.723  26.497  0.00  0.00    +0.332 A 
ATOM      9  O   UNL     1      53.629 156.184  25.407  0.00  0.00    -0.247 OA
ATOM     10  H   UNL     1      52.818 157.587  27.187  0.00  0.00    +0.175 HD
ATOM     11  H   UNL     1      51.919 154.604  29.746  0.00  0.00    +0.175 HD
ATOM     12  H   UNL     1      53.477 153.736  26.091  0.00  0.00    +0.175 HD
ENDROOT
TORSDOF 0
