REMARK  Name = =
REMARK  1 active torsions:
REMARK  status: ('A' for Active; 'I' for Inactive)
REMARK    1  A    between atoms: C_1  and  C_7
REMARK                            x       y       z     vdW  Elec       q    Type
REMARK                         _______ _______ _______ _____ _____    ______ ____
ROOT
ATOM      1  C   UNL     1      51.541 155.902  28.081  0.00  0.00    +0.054 C 
ATOM      2  N   UNL     1      51.142 155.787  29.453  0.00  0.00    -0.299 NA
ATOM      3  C   UNL     1      50.548 157.078  29.830  0.00  0.00    +0.069 C 
ATOM      4  C   UNL     1      51.575 158.171  29.884  0.00  0.00    +0.017 C 
ATOM      5  C   UNL     1      52.831 157.761  29.147  0.00  0.00    +0.003 C 
ATOM      6  C   UNL     1      52.399 157.123  27.836  0.00  0.00    +0.016 C 
ATOM      7  H   UNL     1      51.953 155.588  30.039  0.00  0.00    +0.123 HD
ENDROOT
BRANCH   1   8
ATOM      8  C   UNL     1      52.220 154.683  27.544  0.00  0.00    +0.022 C 
ATOM      9  C   UNL     1      51.313 153.532  27.290  0.00  0.00    +0.066 C 
ATOM     10  C   UNL     1      52.325 152.412  27.223  0.00  0.00    +0.151 C 
ATOM     11  O   UNL     1      52.322 151.388  26.499  0.00  0.00    -0.296 OA
ATOM     12  C   UNL     1      53.321 152.829  28.231  0.00  0.00    +0.065 C 
ATOM     13  C   UNL     1      53.259 154.133  28.414  0.00  0.00    +0.010 C 
ENDBRANCH   1   8
TORSDOF 1
