REMARK  Name = =
REMARK  1 active torsions:
REMARK  status: ('A' for Active; 'I' for Inactive)
REMARK    1  A    between atoms: N_1  and  N_10
REMARK                            x       y       z     vdW  Elec       q    Type
REMARK                         _______ _______ _______ _____ _____    ______ ____
ROOT
ATOM      1  N   UNL     1      51.262 158.303  29.925  0.00  0.00    -0.156 N 
ATOM      2  C   UNL     1      49.960 158.364  30.148  0.00  0.00    +0.352 A 
ATOM      3  O   UNL     1      49.309 159.337  30.564  0.00  0.00    -0.245 OA
ATOM      4  N   UNL     1      49.194 157.256  29.911  0.00  0.00    -0.259 N 
ATOM      5  C   UNL     1      49.696 156.106  29.461  0.00  0.00    +0.332 A 
ATOM      6  O   UNL     1      48.969 155.086  29.245  0.00  0.00    -0.247 OA
ATOM      7  N   UNL     1      51.009 156.039  29.234  0.00  0.00    -0.259 N 
ATOM      8  C   UNL     1      51.769 157.109  29.460  0.00  0.00    +0.352 A 
ATOM      9  O   UNL     1      52.998 156.979  29.225  0.00  0.00    -0.245 OA
ATOM     10  H   UNL     1      48.226 157.310  30.081  0.00  0.00    +0.175 HD
ATOM     11  H   UNL     1      51.413 155.205  28.902  0.00  0.00    +0.175 HD
ENDROOT
BRANCH   1  12
ATOM     12  N   UNL     1      52.150 159.341  30.121  0.00  0.00    -0.199 N 
ATOM     13  C   UNL     1      51.996 160.496  30.900  0.00  0.00    +0.322 C 
ATOM     14  O   UNL     1      50.960 160.729  31.550  0.00  0.00    -0.251 OA
ATOM     15  N   UNL     1      53.026 161.499  31.005  0.00  0.00    -0.258 N 
ATOM     16  C   UNL     1      52.826 162.672  31.818  0.00  0.00    +0.127 C 
ATOM     17  C   UNL     1      53.735 163.784  31.275  0.00  0.00    +0.164 C 
ATOM     18  O   UNL     1      55.041 163.250  31.335  0.00  0.00    -0.350 OA
ATOM     19  C   UNL     1      55.182 162.405  30.259  0.00  0.00    +0.164 C 
ATOM     20  C   UNL     1      54.241 161.251  30.257  0.00  0.00    +0.127 C 
ATOM     21  H   UNL     1      53.010 159.259  29.649  0.00  0.00    +0.178 HD
ENDBRANCH   1  12
TORSDOF 1
