REMARK  Name = =
REMARK  3 active torsions:
REMARK  status: ('A' for Active; 'I' for Inactive)
REMARK    1  A    between atoms: C_1  and  N_10
REMARK    2  A    between atoms: C_1  and  C_12
REMARK    3  A    between atoms: N_7  and  O_11
REMARK                            x       y       z     vdW  Elec       q    Type
REMARK                         _______ _______ _______ _____ _____    ______ ____
ROOT
ATOM      1  C   UNL     1      52.540 154.930  28.649  0.00  0.00    +0.103 C 
ATOM      2  N   UNL     1      51.415 154.093  28.750  0.00  0.00    -0.285 NA
ATOM      3  C   UNL     1      50.133 154.603  28.502  0.00  0.00    +0.070 C 
ATOM      4  C   UNL     1      49.896 155.748  29.497  0.00  0.00    +0.017 C 
ATOM      5  C   UNL     1      50.915 156.801  29.139  0.00  0.00    +0.004 C 
ATOM      6  C   UNL     1      52.318 156.313  29.164  0.00  0.00    +0.033 C 
ATOM      7  H   UNL     1      51.406 153.726  29.702  0.00  0.00    +0.125 HD
ENDROOT
BRANCH   1  11
ATOM      8  N   UNL     1      55.443 152.752  29.941  0.00  0.00    -0.181 N 
ATOM      9  C   UNL     1      54.454 153.312  29.068  0.00  0.00    +0.324 C 
ATOM     10  O   UNL     1      54.397 152.871  27.917  0.00  0.00    -0.251 OA
ATOM     11  N   UNL     1      53.574 154.333  29.516  0.00  0.00    -0.279 N 
ATOM     12  H   UNL     1      55.505 153.087  30.865  0.00  0.00    +0.184 HD
ATOM     13  H   UNL     1      53.657 154.655  30.442  0.00  0.00    +0.152 HD
BRANCH   8  14
ATOM     14  O   UNL     1      56.290 151.785  29.543  0.00  0.00    -0.294 OA
ATOM     15  H   UNL     1      56.111 151.560  28.617  0.00  0.00    +0.241 HD
ENDBRANCH   8  14
ENDBRANCH   1  11
BRANCH   1  16
ATOM     16  C   UNL     1      53.145 154.913  27.261  0.00  0.00    +0.038 C 
ATOM     17  C   UNL     1      52.114 154.321  26.307  0.00  0.00    +0.067 C 
ATOM     18  C   UNL     1      52.554 154.927  25.022  0.00  0.00    +0.151 C 
ATOM     19  O   UNL     1      52.493 154.413  23.897  0.00  0.00    -0.296 OA
ATOM     20  C   UNL     1      53.064 156.255  25.421  0.00  0.00    +0.065 C 
ATOM     21  C   UNL     1      53.395 156.230  26.696  0.00  0.00    +0.011 C 
ENDBRANCH   1  16
TORSDOF 3
