REMARK  Name = =
REMARK  8 active torsions:
REMARK  status: ('A' for Active; 'I' for Inactive)
REMARK    1  A    between atoms: C_1  and  C_7
REMARK    2  A    between atoms: C_1  and  N_21
REMARK    3  A    between atoms: C_7  and  O_13
REMARK    4  A    between atoms: O_13  and  P_14
REMARK    5  A    between atoms: P_14  and  O_16
REMARK    6  A    between atoms: P_14  and  O_17
REMARK    7  A    between atoms: N_18  and  N_23
REMARK    8  A    between atoms: N_18  and  O_27
REMARK                            x       y       z     vdW  Elec       q    Type
REMARK                         _______ _______ _______ _____ _____    ______ ____
ROOT
ATOM      1  C   UNL     1      52.088 155.108  28.044  0.00  0.00    +0.126 C 
ATOM      2  N   UNL     1      52.563 154.932  29.349  0.00  0.00    -0.283 NA
ATOM      3  C   UNL     1      51.721 154.641  30.417  0.00  0.00    +0.070 C 
ATOM      4  C   UNL     1      50.274 154.469  30.250  0.00  0.00    +0.017 C 
ATOM      5  C   UNL     1      49.762 155.196  29.066  0.00  0.00    +0.005 C 
ATOM      6  C   UNL     1      50.607 155.051  27.874  0.00  0.00    +0.036 C 
ATOM      7  H   UNL     1      53.044 155.797  29.595  0.00  0.00    +0.125 HD
ENDROOT
BRANCH   1   8
ATOM      8  C   UNL     1      52.728 156.397  27.487  0.00  0.00    +0.133 C 
ATOM      9  C   UNL     1      52.054 156.736  26.156  0.00  0.00    +0.064 C 
ATOM     10  C   UNL     1      53.147 156.821  25.166  0.00  0.00    +0.155 C 
ATOM     11  O   UNL     1      53.044 157.363  24.001  0.00  0.00    -0.223 OA
ATOM     12  C   UNL     1      54.291 156.198  25.753  0.00  0.00    +0.035 C 
ATOM     13  C   UNL     1      54.067 155.967  27.008  0.00  0.00    +0.033 C 
BRANCH   8  14
ATOM     14  O   UNL     1      52.891 157.420  28.274  0.00  0.00    -0.275 OA
BRANCH  14  15
ATOM     15  P   UNL     1      52.030 158.367  29.157  0.00  0.00    +0.473 P 
ATOM     16  O   UNL     1      50.915 159.210  28.601  0.00  0.00    -0.228 OA
BRANCH  15  17
ATOM     17  O   UNL     1      53.062 159.540  29.911  0.00  0.00    -0.303 OA
ATOM     18  H   UNL     1      53.825 159.092  30.307  0.00  0.00    +0.222 HD
ENDBRANCH  15  17
BRANCH  15  19
ATOM     19  O   UNL     1      51.329 157.547  30.497  0.00  0.00    -0.303 OA
ATOM     20  H   UNL     1      51.995 156.977  30.912  0.00  0.00    +0.222 HD
ENDBRANCH  15  19
ENDBRANCH  14  15
ENDBRANCH   8  14
ENDBRANCH   1   8
BRANCH   1  24
ATOM     21  N   UNL     1      52.719 151.697  26.422  0.00  0.00    -0.070 N 
ATOM     22  C   UNL     1      52.173 152.716  27.284  0.00  0.00    +0.345 C 
ATOM     23  O   UNL     1      51.296 152.407  28.123  0.00  0.00    -0.249 OA
ATOM     24  N   UNL     1      52.610 154.048  27.200  0.00  0.00    -0.275 N 
ATOM     25  H   UNL     1      53.303 154.274  26.538  0.00  0.00    +0.152 HD
BRANCH  21  27
ATOM     26  C   UNL     1      54.940 152.412  25.793  0.00  0.00    +0.110 C 
ATOM     27  N   UNL     1      53.678 152.071  25.490  0.00  0.00    -0.167 N 
ATOM     28  C   UNL     1      53.537 152.159  24.138  0.00  0.00    +0.187 C 
ATOM     29  N   UNL     1      54.721 152.552  23.644  0.00  0.00    -0.223 NA
ATOM     30  C   UNL     1      55.602 152.715  24.640  0.00  0.00    +0.118 C 
ENDBRANCH  21  27
BRANCH  21  31
ATOM     31  O   UNL     1      52.305 150.419  26.521  0.00  0.00    -0.273 OA
ATOM     32  H   UNL     1      51.638 150.349  27.221  0.00  0.00    +0.244 HD
ENDBRANCH  21  31
ENDBRANCH   1  24
TORSDOF 8
