REMARK  Name = =
REMARK  12 active torsions:
REMARK  status: ('A' for Active; 'I' for Inactive)
REMARK    1  A    between atoms: N_1  and  N_23
REMARK    2  A    between atoms: N_1  and  O_38
REMARK    3  A    between atoms: N_4  and  C_5
REMARK    4  A    between atoms: C_5  and  C_11
REMARK    5  A    between atoms: C_11  and  O_17
REMARK    6  A    between atoms: O_17  and  P_18
REMARK    7  A    between atoms: P_18  and  O_20
REMARK    8  A    between atoms: P_18  and  O_21
REMARK    9  A    between atoms: C_22  and  O_27
REMARK   10  A    between atoms: O_27  and  C_29
REMARK   11  A    between atoms: C_28  and  C_35
REMARK   12  A    between atoms: C_30  and  O_37
REMARK                            x       y       z     vdW  Elec       q    Type
REMARK                         _______ _______ _______ _____ _____    ______ ____
ROOT
ATOM      1  N   UNL     1      50.149 155.448  29.086  0.00  0.00    -0.067 N 
ATOM      2  C   UNL     1      50.633 156.634  29.672  0.00  0.00    +0.345 C 
ATOM      3  O   UNL     1      51.805 156.694  30.096  0.00  0.00    -0.249 OA
ATOM      4  N   UNL     1      49.773 157.765  29.781  0.00  0.00    -0.275 N 
ATOM      5  H   UNL     1      48.849 157.684  29.451  0.00  0.00    +0.152 HD
ENDROOT
BRANCH   4   6
ATOM      6  C   UNL     1      50.197 159.049  30.363  0.00  0.00    +0.127 C 
ATOM      7  N   UNL     1      49.333 160.044  29.763  0.00  0.00    -0.283 NA
ATOM      8  C   UNL     1      47.927 159.781  29.815  0.00  0.00    +0.070 C 
ATOM      9  C   UNL     1      47.513 159.733  31.276  0.00  0.00    +0.017 C 
ATOM     10  C   UNL     1      48.368 158.620  31.889  0.00  0.00    +0.005 C 
ATOM     11  C   UNL     1      49.846 159.056  31.836  0.00  0.00    +0.036 C 
ATOM     12  H   UNL     1      49.501 160.929  30.241  0.00  0.00    +0.125 HD
BRANCH   6  13
ATOM     13  C   UNL     1      51.599 159.425  30.028  0.00  0.00    +0.138 C 
ATOM     14  C   UNL     1      52.690 158.559  30.584  0.00  0.00    +0.095 C 
ATOM     15  C   UNL     1      53.756 158.828  29.518  0.00  0.00    +0.153 C 
ATOM     16  O   UNL     1      54.923 159.095  29.722  0.00  0.00    -0.296 OA
ATOM     17  C   UNL     1      52.944 158.664  28.296  0.00  0.00    +0.067 C 
ATOM     18  C   UNL     1      51.709 158.989  28.540  0.00  0.00    +0.039 C 
BRANCH  13  19
ATOM     19  O   UNL     1      51.890 160.719  29.931  0.00  0.00    -0.275 OA
BRANCH  19  20
ATOM     20  P   UNL     1      52.540 161.746  30.934  0.00  0.00    +0.473 P 
ATOM     21  O   UNL     1      53.644 161.347  31.869  0.00  0.00    -0.228 OA
BRANCH  20  22
ATOM     22  O   UNL     1      53.214 163.084  30.039  0.00  0.00    -0.303 OA
ATOM     23  H   UNL     1      53.914 162.760  29.451  0.00  0.00    +0.222 HD
ENDBRANCH  20  22
BRANCH  20  24
ATOM     24  O   UNL     1      51.345 162.511  31.896  0.00  0.00    -0.303 OA
ATOM     25  H   UNL     1      50.898 161.848  32.445  0.00  0.00    +0.222 HD
ENDBRANCH  20  24
ENDBRANCH  19  20
ENDBRANCH  13  19
ENDBRANCH   6  13
ENDBRANCH   4   6
BRANCH   1  27
ATOM     26  C   UNL     1      51.750 153.860  28.080  0.00  0.00    +0.241 C 
ATOM     27  N   UNL     1      50.971 154.326  29.037  0.00  0.00    -0.137 N 
ATOM     28  C   UNL     1      51.017 153.457  30.117  0.00  0.00    +0.190 C 
ATOM     29  N   UNL     1      51.827 152.435  29.840  0.00  0.00    -0.220 NA
ATOM     30  C   UNL     1      52.280 152.670  28.602  0.00  0.00    +0.156 C 
BRANCH  26  31
ATOM     31  O   UNL     1      52.019 154.394  26.836  0.00  0.00    -0.433 OA
BRANCH  31  33
ATOM     32  C   UNL     1      53.620 154.655  25.134  0.00  0.00    +0.091 C 
ATOM     33  C   UNL     1      52.798 153.785  25.857  0.00  0.00    +0.185 C 
ATOM     34  C   UNL     1      52.769 152.452  25.601  0.00  0.00    +0.169 C 
ATOM     35  C   UNL     1      53.586 151.930  24.571  0.00  0.00    +0.040 C 
ATOM     36  C   UNL     1      54.386 152.785  23.861  0.00  0.00    +0.003 C 
ATOM     37  C   UNL     1      54.404 154.128  24.137  0.00  0.00    +0.008 C 
BRANCH  32  39
ATOM     38  N   UNL     1      53.378 156.639  26.681  0.00  0.00    -0.325 N 
ATOM     39  C   UNL     1      53.755 156.049  25.464  0.00  0.00    +0.246 C 
ATOM     40  O   UNL     1      54.265 156.849  24.602  0.00  0.00    -0.270 OA
ATOM     41  H   UNL     1      52.979 156.088  27.392  0.00  0.00    +0.145 HD
ATOM     42  H   UNL     1      53.513 157.604  26.823  0.00  0.00    +0.145 HD
ENDBRANCH  32  39
BRANCH  34  43
ATOM     43  O   UNL     1      51.999 151.513  26.270  0.00  0.00    -0.503 OA
ATOM     44  H   UNL     1      51.432 151.782  26.966  0.00  0.00    +0.292 HD
ENDBRANCH  34  43
ENDBRANCH  31  33
ENDBRANCH  26  31
ENDBRANCH   1  27
BRANCH   1  45
ATOM     45  O   UNL     1      48.918 155.389  28.588  0.00  0.00    -0.273 OA
ATOM     46  H   UNL     1      48.482 156.248  28.701  0.00  0.00    +0.244 HD
ENDBRANCH   1  45
TORSDOF 12
