REMARK  Name = =
REMARK  0 active torsions:
REMARK  status: ('A' for Active; 'I' for Inactive)
REMARK                            x       y       z     vdW  Elec       q    Type
REMARK                         _______ _______ _______ _____ _____    ______ ____
ROOT
ATOM      1  N   UNL     1       2.755  -7.021  31.883  0.00  0.00    -0.295 N 
ATOM      2  C   UNL     1       2.043  -5.781  32.091  0.00  0.00    +0.176 C 
ATOM      3  C   UNL     1       0.591  -6.094  32.048  0.00  0.00    +0.243 C 
ATOM      4  O   UNL     1      -0.048  -5.868  30.987  0.00  0.00    -0.273 OA
ATOM      5  N   UNL     1      -0.123  -6.640  33.149  0.00  0.00    -0.303 N 
ATOM      6  C   UNL     1       0.134  -6.288  34.533  0.00  0.00    +0.090 C 
ATOM      7  C   UNL     1      -1.127  -5.687  35.100  0.00  0.00    +0.031 C 
ATOM      8  C   UNL     1      -2.326  -6.571  34.974  0.00  0.00    +0.087 C 
ATOM      9  C   UNL     1      -3.317  -5.955  34.041  0.00  0.00    +0.223 C 
ATOM     10  O   UNL     1      -3.335  -4.680  34.017  0.00  0.00    -0.275 OA
ATOM     11  N   UNL     1      -4.191  -6.729  33.227  0.00  0.00    -0.297 N 
ATOM     12  C   UNL     1      -4.345  -8.162  33.369  0.00  0.00    +0.176 C 
ATOM     13  C   UNL     1      -3.348  -8.921  32.568  0.00  0.00    +0.243 C 
ATOM     14  O   UNL     1      -2.905  -9.981  33.084  0.00  0.00    -0.273 OA
ATOM     15  N   UNL     1      -2.886  -8.521  31.289  0.00  0.00    -0.295 N 
ATOM     16  C   UNL     1      -3.731  -7.968  30.248  0.00  0.00    +0.176 C 
ATOM     17  C   UNL     1      -2.989  -6.827  29.652  0.00  0.00    +0.243 C 
ATOM     18  O   UNL     1      -3.087  -5.706  30.254  0.00  0.00    -0.273 OA
ATOM     19  N   UNL     1      -2.222  -6.999  28.478  0.00  0.00    -0.295 N 
ATOM     20  C   UNL     1      -2.196  -8.262  27.826  0.00  0.00    +0.176 C 
ATOM     21  C   UNL     1      -1.221  -8.340  26.715  0.00  0.00    +0.243 C 
ATOM     22  O   UNL     1      -1.473  -9.175  25.810  0.00  0.00    -0.273 OA
ATOM     23  N   UNL     1      -0.044  -7.560  26.594  0.00  0.00    -0.295 N 
ATOM     24  C   UNL     1       0.788  -7.178  27.723  0.00  0.00    +0.176 C 
ATOM     25  C   UNL     1       2.161  -7.736  27.590  0.00  0.00    +0.243 C 
ATOM     26  O   UNL     1       2.338  -8.766  26.888  0.00  0.00    -0.273 OA
ATOM     27  N   UNL     1       3.289  -7.150  28.228  0.00  0.00    -0.295 N 
ATOM     28  C   UNL     1       3.186  -6.402  29.467  0.00  0.00    +0.176 C 
ATOM     29  C   UNL     1       3.297  -7.330  30.621  0.00  0.00    +0.243 C 
ATOM     30  O   UNL     1       3.900  -8.416  30.431  0.00  0.00    -0.273 OA
ATOM     31  H   UNL     1       2.862  -7.654  32.629  0.00  0.00    +0.150 HD
ATOM     32  H   UNL     1      -0.833  -7.295  32.962  0.00  0.00    +0.149 HD
ATOM     33  H   UNL     1      -4.716  -6.268  32.534  0.00  0.00    +0.150 HD
ATOM     34  H   UNL     1      -1.927  -8.626  31.094  0.00  0.00    +0.150 HD
ATOM     35  H   UNL     1      -1.706  -6.245  28.112  0.00  0.00    +0.150 HD
ATOM     36  H   UNL     1       0.225  -7.260  25.696  0.00  0.00    +0.150 HD
ATOM     37  H   UNL     1       4.175  -7.256  27.812  0.00  0.00    +0.150 HD
ENDROOT
TORSDOF 0
