MODEL 1
REMARK VINA RESULT:   -10.220      0.000      0.000
REMARK INTER + INTRA:         -13.070
REMARK INTER:                 -12.012
REMARK INTRA:                  -1.058
REMARK UNBOUND:                -1.058
REMARK  Name = =
REMARK  3 active torsions:
REMARK  status: ('A' for Active; 'I' for Inactive)
REMARK    1  A    between atoms: C_1  and  C_24
REMARK    2  A    between atoms: C_5  and  C_11
REMARK    3  A    between atoms: C_10  and  C_25
REMARK                            x       y       z     vdW  Elec       q    Type
REMARK                         _______ _______ _______ _____ _____    ______ ____
ROOT
ATOM      1  C   UNL     1      51.110 159.460  42.313  0.00  0.00    +0.018 C 
ATOM      2  C   UNL     1      52.372 160.073  42.237  0.00  0.00    +0.001 C 
ATOM      3  C   UNL     1      52.555 161.407  42.009  0.00  0.00    +0.001 C 
ATOM      4  C   UNL     1      51.410 162.201  41.842  0.00  0.00    -0.000 C 
ATOM      5  C   UNL     1      50.171 161.647  41.909  0.00  0.00    +0.000 C 
ATOM      6  C   UNL     1      50.034 160.275  42.145  0.00  0.00    +0.001 C 
ATOM      7  C   UNL     1      51.558 163.553  41.572  0.00  0.00    -0.000 C 
ATOM      8  C   UNL     1      52.817 164.127  41.471  0.00  0.00    -0.000 C 
ATOM      9  C   UNL     1      53.907 163.326  41.643  0.00  0.00    +0.001 C 
ATOM     10  C   UNL     1      53.791 161.949  41.917  0.00  0.00    +0.034 C 
ENDROOT
BRANCH   5  11
ATOM     11  C   UNL     1      48.976 162.483  41.781  0.00  0.00    +0.001 C 
ATOM     12  C   UNL     1      48.408 162.844  40.579  0.00  0.00    +0.012 C 
ATOM     13  C   UNL     1      47.274 163.625  40.457  0.00  0.00    +0.068 C 
ATOM     14  C   UNL     1      46.670 164.076  41.610  0.00  0.00    +0.068 C 
ATOM     15  C   UNL     1      47.206 163.738  42.843  0.00  0.00    +0.012 C 
ATOM     16  C   UNL     1      48.336 162.959  42.933  0.00  0.00    +0.001 C 
ATOM     17 CL   UNL     1      45.232 165.068  41.528  0.00  0.00    -0.081 Cl
ATOM     18 CL   UNL     1      46.628 164.029  38.866  0.00  0.00    -0.081 Cl
ENDBRANCH   5  11
BRANCH   1  24
ATOM     19  N   UNL     1      52.138 157.292  42.802  0.00  0.00    -0.224 NA
ATOM     20  C   UNL     1      52.060 155.970  43.032  0.00  0.00    +0.199 C 
ATOM     21  N   UNL     1      50.891 155.309  43.033  0.00  0.00    -0.222 NA
ATOM     22  C   UNL     1      49.774 156.007  42.797  0.00  0.00    +0.102 C 
ATOM     23  C   UNL     1      49.808 157.380  42.555  0.00  0.00    +0.040 C 
ATOM     24  C   UNL     1      51.026 158.015  42.563  0.00  0.00    +0.085 C 
ENDBRANCH   1  24
BRANCH  10  25
ATOM     25  C   UNL     1      55.042 161.225  42.154  0.00  0.00    +0.260 C 
ATOM     26  O   UNL     1      55.551 160.820  40.864  0.00  0.00    -0.324 OA
ATOM     27  C   UNL     1      56.875 160.489  41.123  0.00  0.00    +0.177 C 
ATOM     28  C   UNL     1      57.186 161.205  42.415  0.00  0.00    +0.177 C 
ATOM     29  O   UNL     1      56.103 162.075  42.533  0.00  0.00    -0.324 OA
ENDBRANCH  10  25
TORSDOF 3
ENDMDL
