REMARK  Name = =
REMARK  3 active torsions:
REMARK  status: ('A' for Active; 'I' for Inactive)
REMARK    1  A    between atoms: C_1  and  C_24
REMARK    2  A    between atoms: C_5  and  C_11
REMARK    3  A    between atoms: C_10  and  C_25
REMARK                            x       y       z     vdW  Elec       q    Type
REMARK                         _______ _______ _______ _____ _____    ______ ____
ROOT
ATOM      1  C   UNL     1      52.856 158.730  29.690  0.00  0.00    +0.018 C 
ATOM      2  C   UNL     1      51.540 158.946  30.133  0.00  0.00    +0.001 C 
ATOM      3  C   UNL     1      50.515 158.068  29.924  0.00  0.00    +0.001 C 
ATOM      4  C   UNL     1      50.804 156.887  29.224  0.00  0.00    -0.000 C 
ATOM      5  C   UNL     1      52.064 156.639  28.779  0.00  0.00    +0.000 C 
ATOM      6  C   UNL     1      53.081 157.569  29.018  0.00  0.00    +0.001 C 
ATOM      7  C   UNL     1      49.780 155.989  28.961  0.00  0.00    -0.000 C 
ATOM      8  C   UNL     1      48.483 156.242  29.383  0.00  0.00    -0.000 C 
ATOM      9  C   UNL     1      48.240 157.398  30.064  0.00  0.00    +0.001 C 
ATOM     10  C   UNL     1      49.257 158.331  30.346  0.00  0.00    +0.034 C 
ENDROOT
BRANCH   5  11
ATOM     11  C   UNL     1      52.375 155.386  28.089  0.00  0.00    +0.001 C 
ATOM     12  C   UNL     1      51.992 154.140  28.534  0.00  0.00    +0.012 C 
ATOM     13  C   UNL     1      52.277 152.957  27.878  0.00  0.00    +0.068 C 
ATOM     14  C   UNL     1      52.992 153.024  26.702  0.00  0.00    +0.068 C 
ATOM     15  C   UNL     1      53.399 154.256  26.215  0.00  0.00    +0.012 C 
ATOM     16  C   UNL     1      53.100 155.417  26.890  0.00  0.00    +0.001 C 
ATOM     17 CL   UNL     1      53.386 151.566  25.821  0.00  0.00    -0.081 Cl
ATOM     18 CL   UNL     1      51.738 151.412  28.536  0.00  0.00    -0.081 Cl
ENDBRANCH   5  11
BRANCH   1  24
ATOM     19  N   UNL     1      53.568 160.887  30.605  0.00  0.00    -0.224 NA
ATOM     20  C   UNL     1      54.510 161.811  30.861  0.00  0.00    +0.199 C 
ATOM     21  N   UNL     1      55.794 161.647  30.502  0.00  0.00    -0.222 NA
ATOM     22  C   UNL     1      56.130 160.516  29.869  0.00  0.00    +0.102 C 
ATOM     23  C   UNL     1      55.186 159.531  29.584  0.00  0.00    +0.040 C 
ATOM     24  C   UNL     1      53.884 159.741  29.969  0.00  0.00    +0.085 C 
ENDBRANCH   1  24
BRANCH  10  25
ATOM     25  C   UNL     1      48.870 159.492  31.151  0.00  0.00    +0.260 C 
ATOM     26  O   UNL     1      47.880 159.040  32.101  0.00  0.00    -0.324 OA
ATOM     27  C   UNL     1      47.841 160.060  33.044  0.00  0.00    +0.177 C 
ATOM     28  C   UNL     1      49.157 160.777  32.863  0.00  0.00    +0.177 C 
ATOM     29  O   UNL     1      49.870 159.880  32.068  0.00  0.00    -0.324 OA
ENDBRANCH  10  25
TORSDOF 3
