REMARK  Name = =
REMARK  2 active torsions:
REMARK  status: ('A' for Active; 'I' for Inactive)
REMARK    1  A    between atoms: C_1  and  C_18
REMARK    2  A    between atoms: C_20  and  O_24
REMARK                            x       y       z     vdW  Elec       q    Type
REMARK                         _______ _______ _______ _____ _____    ______ ____
ROOT
ATOM      1  C   UNL     1      47.876 159.409  27.624  0.00  0.00    +0.044 C 
ATOM      2  C   UNL     1      46.930 159.921  28.653  0.00  0.00    +0.007 C 
ATOM      3  C   UNL     1      47.186 161.301  29.154  0.00  0.00    +0.004 C 
ATOM      4  C   UNL     1      48.578 161.537  29.635  0.00  0.00    +0.018 C 
ATOM      5  C   UNL     1      48.790 161.804  31.041  0.00  0.00    +0.004 C 
ATOM      6  C   UNL     1      49.756 160.980  31.784  0.00  0.00    +0.005 C 
ATOM      7  C   UNL     1      50.266 161.793  32.969  0.00  0.00    +0.000 C 
ATOM      8  C   UNL     1      49.140 162.178  33.882  0.00  0.00    +0.000 C 
ATOM      9  C   UNL     1      48.906 161.054  34.837  0.00  0.00    +0.000 C 
ATOM     10  C   UNL     1      49.881 159.970  34.370  0.00  0.00    +0.000 C 
ATOM     11  C   UNL     1      51.021 160.786  33.849  0.00  0.00    +0.000 C 
ATOM     12  C   UNL     1      47.930 162.687  33.214  0.00  0.00    +0.000 C 
ATOM     13  C   UNL     1      47.605 162.096  31.889  0.00  0.00    +0.000 C 
ATOM     14  C   UNL     1      50.895 160.429  30.988  0.00  0.00    +0.025 C 
ATOM     15  C   UNL     1      50.524 160.114  29.586  0.00  0.00    -0.035 C 
ATOM     16  C   UNL     1      49.486 160.602  28.961  0.00  0.00    -0.048 C 
ATOM     17  C   UNL     1      49.132 160.262  27.532  0.00  0.00    +0.028 C 
ENDROOT
BRANCH   1  18
ATOM     18  C   UNL     1      47.264 159.193  26.303  0.00  0.00    +0.062 C 
ATOM     19  C   UNL     1      48.018 159.338  25.157  0.00  0.00    +0.051 C 
ATOM     20  C   UNL     1      47.455 159.138  23.892  0.00  0.00    +0.136 C 
ATOM     21  C   UNL     1      46.133 158.791  23.784  0.00  0.00    +0.057 C 
ATOM     22  C   UNL     1      45.409 158.655  24.946  0.00  0.00    +0.102 C 
ATOM     23  N   UNL     1      45.971 158.853  26.151  0.00  0.00    -0.248 NA
BRANCH  20  24
ATOM     24  O   UNL     1      48.208 159.283  22.756  0.00  0.00    -0.505 OA
ATOM     25  H   UNL     1      49.112 159.520  22.820  0.00  0.00    +0.292 HD
ENDBRANCH  20  24
ENDBRANCH   1  18
TORSDOF 2
