MODEL 1
REMARK VINA RESULT:    -9.439      0.000      0.000
REMARK INTER + INTRA:         -16.593
REMARK INTER:                 -14.681
REMARK INTRA:                  -1.912
REMARK UNBOUND:                -1.912
REMARK  Name = =
REMARK  11 active torsions:
REMARK  status: ('A' for Active; 'I' for Inactive)
REMARK    1  A    between atoms: C_1  and  C_3
REMARK    2  A    between atoms: C_1  and  O_21
REMARK    3  A    between atoms: C_5  and  O_20
REMARK    4  A    between atoms: C_6  and  O_19
REMARK    5  A    between atoms: C_7  and  O_18
REMARK    6  A    between atoms: C_8  and  N_9
REMARK    7  A    between atoms: C_10  and  C_12
REMARK    8  A    between atoms: O_21  and  C_23
REMARK    9  A    between atoms: N_22  and  S_33
REMARK   10  A    between atoms: C_25  and  N_27
REMARK   11  A    between atoms: S_33  and  C_36
REMARK                            x       y       z     vdW  Elec       q    Type
REMARK                         _______ _______ _______ _____ _____    ______ ____
ROOT
ATOM      1  C   UNL     1      -2.028  -4.869  29.565  0.00  0.00    +0.344 C 
ATOM      2  O   UNL     1      -2.851  -4.102  28.969  0.00  0.00    -0.245 OA
ENDROOT
BRANCH   1   3
ATOM      3  C   UNL     1      -2.461  -5.744  30.646  0.00  0.00    +0.095 C 
ATOM      4  C   UNL     1      -2.266  -7.107  30.628  0.00  0.00    +0.048 C 
ATOM      5  C   UNL     1      -2.680  -7.931  31.625  0.00  0.00    +0.171 C 
ATOM      6  C   UNL     1      -3.324  -7.376  32.700  0.00  0.00    +0.203 C 
ATOM      7  C   UNL     1      -3.533  -5.993  32.742  0.00  0.00    +0.185 C 
ATOM      8  C   UNL     1      -3.118  -5.164  31.742  0.00  0.00    +0.094 C 
BRANCH   8   9
ATOM      9  N   UNL     1      -3.313  -3.746  31.743  0.00  0.00    -0.278 N 
ATOM     10  C   UNL     1      -4.575  -3.186  31.469  0.00  0.00    +0.251 C 
ATOM     11  O   UNL     1      -5.514  -3.988  31.230  0.00  0.00    -0.270 OA
ATOM     12  H   UNL     1      -2.551  -3.153  31.937  0.00  0.00    +0.155 HD
BRANCH  10  13
ATOM     13  C   UNL     1      -4.877  -1.759  31.441  0.00  0.00    +0.073 C 
ATOM     14  C   UNL     1      -4.121  -0.881  30.701  0.00  0.00    +0.103 C 
ATOM     15  N   UNL     1      -4.382   0.429  30.668  0.00  0.00    -0.242 NA
ATOM     16  C   UNL     1      -5.405   0.977  31.358  0.00  0.00    +0.099 C 
ATOM     17  C   UNL     1      -6.168   0.104  32.103  0.00  0.00    +0.021 C 
ATOM     18  C   UNL     1      -5.933  -1.260  32.166  0.00  0.00    +0.008 C 
ENDBRANCH  10  13
ENDBRANCH   8   9
BRANCH   7  19
ATOM     19  O   UNL     1      -4.188  -5.443  33.839  0.00  0.00    -0.502 OA
ATOM     20  H   UNL     1      -3.765  -5.423  34.675  0.00  0.00    +0.292 HD
ENDBRANCH   7  19
BRANCH   6  21
ATOM     21  O   UNL     1      -3.767  -8.163  33.749  0.00  0.00    -0.501 OA
ATOM     22  H   UNL     1      -3.331  -8.130  34.576  0.00  0.00    +0.292 HD
ENDBRANCH   6  21
BRANCH   5  23
ATOM     23  O   UNL     1      -2.437  -9.301  31.520  0.00  0.00    -0.503 OA
ATOM     24  H   UNL     1      -1.714  -9.684  31.974  0.00  0.00    +0.292 HD
ENDBRANCH   5  23
ENDBRANCH   1   3
BRANCH   1  25
ATOM     25  O   UNL     1      -0.702  -4.857  29.161  0.00  0.00    -0.431 OA
BRANCH  25  27
ATOM     26  N   UNL     1       1.347  -3.641  29.371  0.00  0.00    -0.118 NA
ATOM     27  C   UNL     1      -0.023  -3.611  29.136  0.00  0.00    +0.251 C 
ATOM     28  C   UNL     1      -0.116  -3.051  27.689  0.00  0.00    +0.080 C 
ATOM     29  C   UNL     1       0.927  -1.965  27.784  0.00  0.00    +0.081 C 
ATOM     30  C   UNL     1       2.038  -2.755  28.462  0.00  0.00    +0.115 C 
BRANCH  29  31
ATOM     31  N   UNL     1       1.272  -1.367  26.557  0.00  0.00    -0.270 NA
ATOM     32  C   UNL     1       2.678  -1.302  26.365  0.00  0.00    +0.089 C 
ATOM     33  C   UNL     1       3.056  -0.565  25.085  0.00  0.00    +0.086 C 
ATOM     34  N   UNL     1       1.852   0.126  24.620  0.00  0.00    -0.295 NA
ATOM     35  C   UNL     1       0.925  -0.933  24.228  0.00  0.00    +0.086 C 
ATOM     36  C   UNL     1       0.515  -1.763  25.419  0.00  0.00    +0.089 C 
ATOM     37  H   UNL     1       2.069   0.724  23.823  0.00  0.00    +0.123 HD
ENDBRANCH  29  31
BRANCH  26  38
ATOM     38  S   UNL     1       2.135  -5.043  29.815  0.00  0.00    +0.066 S 
ATOM     39  O   UNL     1       3.627  -4.866  29.617  0.00  0.00    -0.153 OA
ATOM     40  O   UNL     1       1.665  -6.158  28.886  0.00  0.00    -0.153 OA
BRANCH  38  41
ATOM     41  C   UNL     1       1.863  -5.552  31.451  0.00  0.00    +0.122 C 
ATOM     42  C   UNL     1       2.460  -4.910  32.509  0.00  0.00    +0.020 C 
ATOM     43  C   UNL     1       2.224  -5.365  33.813  0.00  0.00    +0.001 C 
ATOM     44  C   UNL     1       1.407  -6.445  34.052  0.00  0.00    +0.000 C 
ATOM     45  C   UNL     1       0.813  -7.083  32.994  0.00  0.00    +0.001 C 
ATOM     46  C   UNL     1       1.051  -6.627  31.708  0.00  0.00    +0.020 C 
ENDBRANCH  38  41
ENDBRANCH  26  38
ENDBRANCH  25  27
ENDBRANCH   1  25
TORSDOF 11
ENDMDL
