REMARK  Name = =
REMARK  11 active torsions:
REMARK  status: ('A' for Active; 'I' for Inactive)
REMARK    1  A    between atoms: C_1  and  C_3
REMARK    2  A    between atoms: C_1  and  O_21
REMARK    3  A    between atoms: C_5  and  O_20
REMARK    4  A    between atoms: C_6  and  O_19
REMARK    5  A    between atoms: C_7  and  O_18
REMARK    6  A    between atoms: C_8  and  N_9
REMARK    7  A    between atoms: C_10  and  C_12
REMARK    8  A    between atoms: O_21  and  C_23
REMARK    9  A    between atoms: N_22  and  S_33
REMARK   10  A    between atoms: C_25  and  N_27
REMARK   11  A    between atoms: S_33  and  C_36
REMARK                            x       y       z     vdW  Elec       q    Type
REMARK                         _______ _______ _______ _____ _____    ______ ____
ROOT
ATOM      1  C   UNL     1     -12.743   1.414  25.782  0.00  0.00    +0.344 C 
ATOM      2  O   UNL     1     -13.074   0.233  26.124  0.00  0.00    -0.245 OA
ENDROOT
BRANCH   1   3
ATOM      3  C   UNL     1     -13.122   2.566  26.590  0.00  0.00    +0.095 C 
ATOM      4  C   UNL     1     -13.603   3.735  26.045  0.00  0.00    +0.048 C 
ATOM      5  C   UNL     1     -13.945   4.818  26.790  0.00  0.00    +0.171 C 
ATOM      6  C   UNL     1     -13.802   4.740  28.151  0.00  0.00    +0.203 C 
ATOM      7  C   UNL     1     -13.315   3.562  28.729  0.00  0.00    +0.185 C 
ATOM      8  C   UNL     1     -12.972   2.474  27.982  0.00  0.00    +0.094 C 
BRANCH   8   9
ATOM      9  N   UNL     1     -12.469   1.251  28.530  0.00  0.00    -0.278 N 
ATOM     10  C   UNL     1     -11.242   1.214  29.219  0.00  0.00    +0.251 C 
ATOM     11  O   UNL     1     -10.618   2.301  29.330  0.00  0.00    -0.270 OA
ATOM     12  H   UNL     1     -12.990   0.422  28.423  0.00  0.00    +0.155 HD
BRANCH  10  13
ATOM     13  C   UNL     1     -10.641   0.023  29.810  0.00  0.00    +0.073 C 
ATOM     14  C   UNL     1      -9.303  -0.024  30.122  0.00  0.00    +0.103 C 
ATOM     15  N   UNL     1      -8.737  -1.109  30.660  0.00  0.00    -0.242 NA
ATOM     16  C   UNL     1      -9.440  -2.228  30.933  0.00  0.00    +0.099 C 
ATOM     17  C   UNL     1     -10.782  -2.189  30.623  0.00  0.00    +0.021 C 
ATOM     18  C   UNL     1     -11.410  -1.087  30.065  0.00  0.00    +0.008 C 
ENDBRANCH  10  13
ENDBRANCH   8   9
BRANCH   7  19
ATOM     19  O   UNL     1     -13.175   3.497  30.111  0.00  0.00    -0.502 OA
ATOM     20  H   UNL     1     -13.406   4.235  30.640  0.00  0.00    +0.292 HD
ENDBRANCH   7  19
BRANCH   6  21
ATOM     21  O   UNL     1     -14.135   5.809  28.964  0.00  0.00    -0.501 OA
ATOM     22  H   UNL     1     -14.462   6.601  28.586  0.00  0.00    +0.292 HD
ENDBRANCH   6  21
BRANCH   5  23
ATOM     23  O   UNL     1     -14.425   5.960  26.149  0.00  0.00    -0.503 OA
ATOM     24  H   UNL     1     -14.508   5.973  25.216  0.00  0.00    +0.292 HD
ENDBRANCH   5  23
ENDBRANCH   1   3
BRANCH   1  25
ATOM     25  O   UNL     1     -12.008   1.584  24.620  0.00  0.00    -0.431 OA
BRANCH  25  27
ATOM     26  N   UNL     1     -11.576   0.402  22.586  0.00  0.00    -0.118 NA
ATOM     27  C   UNL     1     -11.503   0.425  23.974  0.00  0.00    +0.251 C 
ATOM     28  C   UNL     1      -9.973   0.363  24.243  0.00  0.00    +0.080 C 
ATOM     29  C   UNL     1      -9.591  -0.677  23.219  0.00  0.00    +0.081 C 
ATOM     30  C   UNL     1     -10.356  -0.130  22.021  0.00  0.00    +0.115 C 
BRANCH  29  31
ATOM     31  N   UNL     1      -8.206  -0.839  23.029  0.00  0.00    -0.270 NA
ATOM     32  C   UNL     1      -7.906  -1.864  22.091  0.00  0.00    +0.089 C 
ATOM     33  C   UNL     1      -6.407  -2.110  21.959  0.00  0.00    +0.086 C 
ATOM     34  N   UNL     1      -5.763  -1.429  23.084  0.00  0.00    -0.295 NA
ATOM     35  C   UNL     1      -5.970  -0.003  22.843  0.00  0.00    +0.086 C 
ATOM     36  C   UNL     1      -7.435   0.350  22.905  0.00  0.00    +0.089 C 
ATOM     37  H   UNL     1      -4.767  -1.646  23.110  0.00  0.00    +0.123 HD
ENDBRANCH  29  31
BRANCH  26  38
ATOM     38  S   UNL     1     -12.356   1.598  21.723  0.00  0.00    +0.066 S 
ATOM     39  O   UNL     1     -12.184   1.343  20.239  0.00  0.00    -0.153 OA
ATOM     40  O   UNL     1     -11.684   2.927  22.054  0.00  0.00    -0.153 OA
BRANCH  38  41
ATOM     41  C   UNL     1     -14.052   1.754  22.052  0.00  0.00    +0.122 C 
ATOM     42  C   UNL     1     -14.939   0.754  21.732  0.00  0.00    +0.020 C 
ATOM     43  C   UNL     1     -16.302   0.929  22.002  0.00  0.00    +0.001 C 
ATOM     44  C   UNL     1     -16.769   2.086  22.580  0.00  0.00    +0.000 C 
ATOM     45  C   UNL     1     -15.883   3.082  22.898  0.00  0.00    +0.001 C 
ATOM     46  C   UNL     1     -14.536   2.901  22.628  0.00  0.00    +0.020 C 
ENDBRANCH  38  41
ENDBRANCH  26  38
ENDBRANCH  25  27
ENDBRANCH   1  25
TORSDOF 11
