REMARK  Name = =
REMARK  10 active torsions:
REMARK  status: ('A' for Active; 'I' for Inactive)
REMARK    1  A    between atoms: C_1  and  N_13
REMARK    2  A    between atoms: C_1  and  O_20
REMARK    3  A    between atoms: N_13  and  N_16
REMARK    4  A    between atoms: O_20  and  P_21
REMARK    5  A    between atoms: P_21  and  C_23
REMARK    6  A    between atoms: P_21  and  O_31
REMARK    7  A    between atoms: C_23  and  P_27
REMARK    8  A    between atoms: C_24  and  C_25
REMARK    9  A    between atoms: P_27  and  O_29
REMARK   10  A    between atoms: P_27  and  O_30
REMARK                            x       y       z     vdW  Elec       q    Type
REMARK                         _______ _______ _______ _____ _____    ______ ____
ROOT
ATOM      1  C   UNL     1     -11.497 -43.690  29.909  0.00  0.00    +0.206 C 
ATOM      2  C   UNL     1     -11.696 -42.908  31.177  0.00  0.00    +0.137 C 
ATOM      3  N   UNL     1     -11.861 -41.518  30.753  0.00  0.00    -0.332 N 
ATOM      4  C   UNL     1     -11.387 -41.418  29.445  0.00  0.00    +0.030 C 
ATOM      5  C   UNL     1     -10.738 -42.688  29.093  0.00  0.00    +0.106 C 
ATOM      6  C   UNL     1      -9.730 -42.765  28.237  0.00  0.00    +0.006 C 
ATOM      7  C   UNL     1      -9.245 -41.540  27.626  0.00  0.00    +0.078 C 
ATOM      8  N   UNL     1      -8.277 -41.878  26.846  0.00  0.00    -0.244 NA
ATOM      9  C   UNL     1      -8.064 -43.289  26.885  0.00  0.00    +0.099 C 
ATOM     10  C   UNL     1      -8.940 -43.860  27.728  0.00  0.00    +0.018 C 
ATOM     11  C   UNL     1      -9.885 -40.273  27.985  0.00  0.00    +0.020 C 
ATOM     12  C   UNL     1     -10.903 -40.233  28.855  0.00  0.00    +0.012 C 
ATOM     13  H   UNL     1     -12.238 -40.786  31.293  0.00  0.00    +0.147 HD
ENDROOT
BRANCH   1  14
ATOM     14  N   UNL     1     -12.674 -44.062  29.208  0.00  0.00    -0.176 N 
ATOM     15  C   UNL     1     -13.893 -43.345  29.296  0.00  0.00    +0.322 C 
ATOM     16  O   UNL     1     -14.897 -43.748  28.624  0.00  0.00    -0.263 OA
BRANCH  14  17
ATOM     17  N   UNL     1     -12.735 -45.197  28.366  0.00  0.00    -0.213 N 
ATOM     18  C   UNL     1     -12.812 -45.113  26.968  0.00  0.00    +0.314 C 
ATOM     19  O   UNL     1     -12.832 -43.984  26.422  0.00  0.00    -0.252 OA
ATOM     20  N   UNL     1     -12.870 -46.284  26.126  0.00  0.00    -0.312 N 
ATOM     21  H   UNL     1     -12.723 -46.089  28.781  0.00  0.00    +0.175 HD
ATOM     22  H   UNL     1     -12.856 -47.182  26.530  0.00  0.00    +0.147 HD
ATOM     23  H   UNL     1     -12.924 -46.185  25.148  0.00  0.00    +0.147 HD
ENDBRANCH  14  17
ENDBRANCH   1  14
BRANCH   1  24
ATOM     24  O   UNL     1     -10.599 -44.739  30.082  0.00  0.00    -0.274 OA
BRANCH  24  25
ATOM     25  P   UNL     1     -10.183 -45.127  31.623  0.00  0.00    +0.371 P 
ATOM     26  O   UNL     1     -10.047 -46.626  31.743  0.00  0.00    -0.253 OA
BRANCH  25  27
ATOM     27  C   UNL     1      -8.573 -44.424  32.055  0.00  0.00    +0.163 C 
ATOM     28  C   UNL     1      -8.515 -43.410  32.883  0.00  0.00    +0.060 C 
BRANCH  28  29
ATOM     29  C   UNL     1      -7.226 -42.822  33.246  0.00  0.00    +0.235 C 
ATOM     30  O   UNL     1      -7.190 -41.881  34.065  0.00  0.00    -0.283 OA
ENDBRANCH  28  29
BRANCH  27  31
ATOM     31  P   UNL     1      -7.057 -45.071  31.382  0.00  0.00    +0.367 P 
ATOM     32  O   UNL     1      -6.013 -45.244  32.487  0.00  0.00    -0.253 OA
BRANCH  31  33
ATOM     33  O   UNL     1      -7.334 -46.539  30.597  0.00  0.00    -0.321 OA
ATOM     34  H   UNL     1      -7.691 -47.182  31.230  0.00  0.00    +0.220 HD
ENDBRANCH  31  33
BRANCH  31  35
ATOM     35  O   UNL     1      -6.428 -43.911  30.306  0.00  0.00    -0.321 OA
ATOM     36  H   UNL     1      -6.278 -43.078  30.780  0.00  0.00    +0.220 HD
ENDBRANCH  31  35
ENDBRANCH  27  31
ENDBRANCH  25  27
BRANCH  25  37
ATOM     37  O   UNL     1     -11.236 -44.581  32.823  0.00  0.00    -0.320 OA
ATOM     38  H   UNL     1     -12.127 -44.924  32.652  0.00  0.00    +0.220 HD
ENDBRANCH  25  37
ENDBRANCH  24  25
ENDBRANCH   1  24
TORSDOF 10
