MODEL 1
REMARK VINA RESULT:    -9.475      0.000      0.000
REMARK INTER + INTRA:         -14.178
REMARK INTER:                 -14.459
REMARK INTRA:                   0.281
REMARK UNBOUND:                 0.281
REMARK  Name = =
REMARK  10 active torsions:
REMARK  status: ('A' for Active; 'I' for Inactive)
REMARK    1  A    between atoms: C_1  and  N_19
REMARK    2  A    between atoms: C_1  and  N_35
REMARK    3  A    between atoms: C_2  and  S_6
REMARK    4  A    between atoms: C_4  and  N_13
REMARK    5  A    between atoms: C_5  and  N_43
REMARK    6  A    between atoms: C_21  and  C_24
REMARK    7  A    between atoms: C_32  and  O_34
REMARK    8  A    between atoms: N_35  and  S_36
REMARK    9  A    between atoms: S_36  and  N_39
REMARK   10  A    between atoms: C_40  and  O_42
REMARK                            x       y       z     vdW  Elec       q    Type
REMARK                         _______ _______ _______ _____ _____    ______ ____
ROOT
ATOM      1  C   UNL     1       0.966  -4.866  28.400  0.00  0.00    +0.173 C 
ATOM      2  C   UNL     1       0.953  -5.135  26.897  0.00  0.00    +0.073 C 
ATOM      3  C   UNL     1       1.359  -6.552  26.804  0.00  0.00    +0.031 C 
ATOM      4  C   UNL     1       1.971  -6.946  28.131  0.00  0.00    +0.084 C 
ATOM      5  C   UNL     1       2.164  -5.646  28.859  0.00  0.00    +0.152 C 
ENDROOT
BRANCH   2   6
ATOM      6  S   UNL     1       2.000  -4.062  26.146  0.00  0.00    -0.148 S 
ATOM      7  C   UNL     1       2.791  -4.655  24.527  0.00  0.00    +0.130 C 
ATOM      8  C   UNL     1       3.802  -3.583  24.482  0.00  0.00    +0.238 C 
ATOM      9  O   UNL     1       3.975  -2.844  23.472  0.00  0.00    -0.274 OA
ATOM     10  N   UNL     1       4.515  -3.519  25.702  0.00  0.00    -0.247 N 
ATOM     11  C   UNL     1       3.700  -3.714  26.834  0.00  0.00    +0.260 C 
ATOM     12  O   UNL     1       4.010  -3.669  28.007  0.00  0.00    -0.264 OA
ATOM     13  H   UNL     1       1.080  -3.061  26.194  0.00  0.00    +0.093 HD
ATOM     14  H   UNL     1       5.485  -3.355  25.755  0.00  0.00    +0.158 HD
ENDBRANCH   2   6
BRANCH   4  15
ATOM     15  N   UNL     1       3.109  -7.793  28.055  0.00  0.00    -0.272 NA
ATOM     16  C   UNL     1       2.744  -8.947  27.220  0.00  0.00    +0.072 C 
ATOM     17  C   UNL     1       3.701 -10.099  27.453  0.00  0.00    +0.017 C 
ATOM     18  C   UNL     1       5.111  -9.550  27.359  0.00  0.00    +0.003 C 
ATOM     19  C   UNL     1       5.094  -8.225  26.651  0.00  0.00    +0.017 C 
ATOM     20  C   UNL     1       4.248  -7.185  27.374  0.00  0.00    +0.072 C 
ENDBRANCH   4  15
BRANCH   1  21
ATOM     21  N   UNL     1      -0.217  -5.382  29.070  0.00  0.00    -0.176 N 
ATOM     22  N   UNL     1      -0.751  -5.178  30.245  0.00  0.00    -0.160 NA
ATOM     23  C   UNL     1      -1.879  -5.895  30.421  0.00  0.00    +0.162 C 
ATOM     24  N   UNL     1      -2.017  -6.576  29.246  0.00  0.00    -0.210 NA
ATOM     25  C   UNL     1      -1.020  -6.264  28.443  0.00  0.00    +0.187 C 
BRANCH  23  26
ATOM     26  C   UNL     1      -2.826  -6.008  31.523  0.00  0.00    +0.082 C 
ATOM     27  C   UNL     1      -3.760  -7.167  31.492  0.00  0.00    +0.012 C 
ATOM     28  C   UNL     1      -4.313  -7.347  32.890  0.00  0.00    +0.005 C 
ATOM     29  C   UNL     1      -4.373  -6.104  33.703  0.00  0.00    +0.026 C 
ATOM     30  C   UNL     1      -4.411  -4.843  32.921  0.00  0.00    -0.023 C 
ATOM     31  C   UNL     1      -3.622  -4.777  31.790  0.00  0.00    -0.019 C 
ATOM     32  C   UNL     1      -3.612  -3.655  31.022  0.00  0.00    -0.001 C 
ATOM     33  C   UNL     1      -4.415  -2.594  31.418  0.00  0.00    +0.036 C 
ATOM     34  C   UNL     1      -5.206  -2.641  32.543  0.00  0.00    +0.133 C 
ATOM     35  C   UNL     1      -5.210  -3.788  33.318  0.00  0.00    +0.032 C 
BRANCH  34  36
ATOM     36  O   UNL     1      -6.005  -1.541  32.909  0.00  0.00    -0.506 OA
ATOM     37  H   UNL     1      -6.100  -0.816  32.323  0.00  0.00    +0.292 HD
ENDBRANCH  34  36
ENDBRANCH  23  26
ENDBRANCH   1  21
BRANCH   1  38
ATOM     38  N   UNL     1       1.066  -3.490  28.696  0.00  0.00    -0.148 NA
ATOM     39  H   UNL     1       1.922  -3.144  28.261  0.00  0.00    +0.152 HD
BRANCH  38  40
ATOM     40  S   UNL     1      -0.202  -2.491  28.187  0.00  0.00    +0.116 S 
ATOM     41  O   UNL     1      -0.834  -1.871  29.421  0.00  0.00    -0.138 OA
ATOM     42  O   UNL     1      -1.324  -3.219  27.488  0.00  0.00    -0.138 OA
BRANCH  40  43
ATOM     43  N   UNL     1       0.296  -1.237  27.121  0.00  0.00    -0.141 N 
ATOM     44  C   UNL     1       1.527  -0.517  27.336  0.00  0.00    +0.418 C 
ATOM     45  O   UNL     1       2.269  -0.764  28.288  0.00  0.00    -0.225 OA
ATOM     46  H   UNL     1      -0.270  -1.006  26.349  0.00  0.00    +0.181 HD
BRANCH  44  47
ATOM     47  O   UNL     1       1.858   0.479  26.424  0.00  0.00    -0.465 OA
ATOM     48  H   UNL     1       1.440   0.504  25.585  0.00  0.00    +0.297 HD
ENDBRANCH  44  47
ENDBRANCH  40  43
ENDBRANCH  38  40
ENDBRANCH   1  38
BRANCH   5  49
ATOM     49  N   UNL     1       2.102  -5.879  30.288  0.00  0.00    -0.265 NA
ATOM     50  C   UNL     1       2.720  -5.119  31.102  0.00  0.00    +0.113 C 
ENDBRANCH   5  49
TORSDOF 10
ENDMDL
