MODEL 1
REMARK VINA RESULT:   -10.595      0.000      0.000
REMARK INTER + INTRA:         -17.393
REMARK INTER:                 -15.549
REMARK INTRA:                  -1.844
REMARK UNBOUND:                -1.844
REMARK  Name = =
REMARK  9 active torsions:
REMARK  status: ('A' for Active; 'I' for Inactive)
REMARK    1  A    between atoms: C_1  and  O_29
REMARK    2  A    between atoms: C_7  and  N_25
REMARK    3  A    between atoms: C_11  and  C_15
REMARK    4  A    between atoms: N_25  and  N_26
REMARK    5  A    between atoms: O_29  and  C_30
REMARK    6  A    between atoms: C_34  and  C_38
REMARK    7  A    between atoms: C_35  and  O_37
REMARK    8  A    between atoms: C_38  and  C_40
REMARK    9  A    between atoms: C_43  and  N_46
REMARK                            x       y       z     vdW  Elec       q    Type
REMARK                         _______ _______ _______ _____ _____    ______ ____
ROOT
ATOM      1  C   UNL     1      -1.642  -5.757  31.038  0.00  0.00    +0.146 C 
ATOM      2  C   UNL     1      -2.205  -4.524  30.646  0.00  0.00    +0.035 C 
ATOM      3  C   UNL     1      -3.408  -4.062  31.096  0.00  0.00    +0.003 C 
ATOM      4  C   UNL     1      -4.108  -4.831  31.967  0.00  0.00    +0.000 C 
ATOM      5  C   UNL     1      -3.612  -6.053  32.394  0.00  0.00    +0.004 C 
ATOM      6  C   UNL     1      -2.361  -6.518  31.923  0.00  0.00    +0.049 C 
ATOM      7  C   UNL     1      -1.884  -7.725  32.380  0.00  0.00    +0.064 C 
ATOM      8  C   UNL     1      -2.680  -8.442  33.289  0.00  0.00    +0.016 C 
ATOM      9  C   UNL     1      -3.884  -7.974  33.722  0.00  0.00    +0.001 C 
ATOM     10  C   UNL     1      -4.374  -6.783  33.293  0.00  0.00    +0.000 C 
ATOM     11  C   UNL     1      -3.883  -2.840  30.657  0.00  0.00    +0.000 C 
ATOM     12  C   UNL     1      -3.142  -2.072  29.746  0.00  0.00    +0.000 C 
ATOM     13  C   UNL     1      -1.959  -2.537  29.302  0.00  0.00    +0.000 C 
ATOM     14  C   UNL     1      -1.484  -3.771  29.758  0.00  0.00    +0.003 C 
ENDROOT
BRANCH  11  15
ATOM     15  C   UNL     1      -5.105  -2.239  31.191  0.00  0.00    +0.000 C 
ATOM     16  C   UNL     1      -5.122  -0.882  31.431  0.00  0.00    +0.002 C 
ATOM     17  C   UNL     1      -6.273  -0.253  31.888  0.00  0.00    +0.019 C 
ATOM     18  C   UNL     1      -7.435  -0.945  32.119  0.00  0.00    +0.081 C 
ATOM     19  C   UNL     1      -7.429  -2.313  31.884  0.00  0.00    +0.018 C 
ATOM     20  C   UNL     1      -6.267  -2.918  31.429  0.00  0.00    +0.001 C 
ATOM     21  C   UNL     1      -8.587  -3.024  32.089  0.00  0.00    +0.003 C 
ATOM     22  C   UNL     1      -9.724  -2.394  32.519  0.00  0.00    +0.021 C 
ATOM     23  C   UNL     1      -9.705  -1.036  32.745  0.00  0.00    +0.099 C 
ATOM     24  N   UNL     1      -8.576  -0.349  32.544  0.00  0.00    -0.244 NA
ENDBRANCH  11  15
BRANCH   7  25
ATOM     25  N   UNL     1      -0.592  -8.207  32.105  0.00  0.00    -0.263 N 
ATOM     26  H   UNL     1      -0.306  -8.380  31.179  0.00  0.00    +0.170 HD
BRANCH  25  27
ATOM     27  N   UNL     1       0.277  -8.436  33.174  0.00  0.00    -0.229 N 
ATOM     28  C   UNL     1       1.196  -7.432  33.544  0.00  0.00    +0.316 C 
ATOM     29  O   UNL     1       1.306  -6.322  32.962  0.00  0.00    -0.264 OA
ATOM     30  H   UNL     1       0.248  -9.288  33.665  0.00  0.00    +0.173 HD
ENDBRANCH  25  27
ENDBRANCH   7  25
BRANCH   1  31
ATOM     31  O   UNL     1      -0.444  -6.124  30.533  0.00  0.00    -0.457 OA
BRANCH  31  32
ATOM     32  C   UNL     1      -0.093  -6.897  29.460  0.00  0.00    +0.134 C 
ATOM     33  C   UNL     1       1.230  -7.064  29.315  0.00  0.00    +0.075 C 
ATOM     34  C   UNL     1       1.851  -7.833  28.255  0.00  0.00    +0.200 C 
ATOM     35  O   UNL     1       3.117  -7.913  28.254  0.00  0.00    -0.287 OA
ATOM     36  C   UNL     1       0.984  -8.462  27.283  0.00  0.00    +0.081 C 
ATOM     37  C   UNL     1      -0.319  -8.308  27.426  0.00  0.00    +0.121 C 
ATOM     38  C   UNL     1      -0.957  -7.546  28.485  0.00  0.00    +0.128 C 
BRANCH  37  39
ATOM     39  O   UNL     1      -1.141  -8.924  26.483  0.00  0.00    -0.509 OA
ATOM     40  H   UNL     1      -1.899  -8.479  26.160  0.00  0.00    +0.292 HD
ENDBRANCH  37  39
BRANCH  36  41
ATOM     41  C   UNL     1       1.510  -9.343  26.241  0.00  0.00    +0.202 C 
ATOM     42  O   UNL     1       1.441  -8.896  25.013  0.00  0.00    -0.213 OA
BRANCH  41  43
ATOM     43  C   UNL     1       2.076 -10.660  26.347  0.00  0.00    +0.012 C 
ATOM     44  C   UNL     1       1.374 -11.815  26.530  0.00  0.00    -0.000 C 
ATOM     45  C   UNL     1       1.924 -13.096  26.509  0.00  0.00    +0.014 C 
ATOM     46  C   UNL     1       3.287 -13.219  26.288  0.00  0.00    +0.042 C 
ATOM     47  C   UNL     1       4.021 -12.061  26.103  0.00  0.00    +0.014 C 
ATOM     48  C   UNL     1       3.461 -10.826  26.127  0.00  0.00    -0.000 C 
BRANCH  46  49
ATOM     49  N   UNL     1       3.855 -14.520  26.257  0.00  0.00    -0.357 N 
ATOM     50  H   UNL     1       3.536 -15.212  26.880  0.00  0.00    +0.142 HD
ATOM     51  H   UNL     1       4.569 -14.730  25.612  0.00  0.00    +0.142 HD
ENDBRANCH  46  49
ENDBRANCH  41  43
ENDBRANCH  36  41
ENDBRANCH  31  32
ENDBRANCH   1  31
TORSDOF 9
ENDMDL
