REMARK  Name = =
REMARK  10 active torsions:
REMARK  status: ('A' for Active; 'I' for Inactive)
REMARK    1  A    between atoms: C_1  and  N_19
REMARK    2  A    between atoms: C_1  and  N_35
REMARK    3  A    between atoms: C_2  and  S_6
REMARK    4  A    between atoms: C_4  and  N_13
REMARK    5  A    between atoms: C_5  and  N_43
REMARK    6  A    between atoms: C_21  and  C_24
REMARK    7  A    between atoms: C_32  and  O_34
REMARK    8  A    between atoms: N_35  and  S_36
REMARK    9  A    between atoms: S_36  and  N_39
REMARK   10  A    between atoms: C_40  and  O_42
REMARK                            x       y       z     vdW  Elec       q    Type
REMARK                         _______ _______ _______ _____ _____    ______ ____
ROOT
ATOM      1  C   UNL     1       2.771  -5.290  26.580  0.00  0.00    +0.173 C 
ATOM      2  C   UNL     1       1.697  -6.135  27.262  0.00  0.00    +0.073 C 
ATOM      3  C   UNL     1       0.480  -5.311  27.123  0.00  0.00    +0.031 C 
ATOM      4  C   UNL     1       0.911  -3.906  26.762  0.00  0.00    +0.084 C 
ATOM      5  C   UNL     1       2.396  -3.896  26.991  0.00  0.00    +0.152 C 
ENDROOT
BRANCH   2   6
ATOM      6  S   UNL     1       2.162  -6.425  28.846  0.00  0.00    -0.148 S 
ATOM      7  C   UNL     1       0.780  -6.400  30.145  0.00  0.00    +0.130 C 
ATOM      8  C   UNL     1       1.694  -6.354  31.300  0.00  0.00    +0.238 C 
ATOM      9  O   UNL     1       1.622  -7.165  32.266  0.00  0.00    -0.274 OA
ATOM     10  N   UNL     1       2.626  -5.299  31.156  0.00  0.00    -0.247 N 
ATOM     11  C   UNL     1       3.099  -5.150  29.838  0.00  0.00    +0.260 C 
ATOM     12  O   UNL     1       3.931  -4.374  29.415  0.00  0.00    -0.264 OA
ATOM     13  H   UNL     1       2.821  -7.561  28.492  0.00  0.00    +0.093 HD
ATOM     14  H   UNL     1       2.915  -4.726  31.903  0.00  0.00    +0.158 HD
ENDBRANCH   2   6
BRANCH   4  15
ATOM     15  N   UNL     1       0.177  -2.859  27.383  0.00  0.00    -0.272 NA
ATOM     16  C   UNL     1      -1.135  -2.790  26.723  0.00  0.00    +0.072 C 
ATOM     17  C   UNL     1      -1.794  -1.451  26.984  0.00  0.00    +0.017 C 
ATOM     18  C   UNL     1      -1.715  -1.183  28.474  0.00  0.00    +0.003 C 
ATOM     19  C   UNL     1      -1.441  -2.466  29.207  0.00  0.00    +0.017 C 
ATOM     20  C   UNL     1      -0.125  -3.110  28.789  0.00  0.00    +0.072 C 
ENDBRANCH   4  15
BRANCH   1  21
ATOM     21  N   UNL     1       2.718  -5.384  25.130  0.00  0.00    -0.176 N 
ATOM     22  N   UNL     1       2.002  -6.090  24.296  0.00  0.00    -0.160 NA
ATOM     23  C   UNL     1       2.312  -5.827  23.011  0.00  0.00    +0.162 C 
ATOM     24  N   UNL     1       3.295  -4.883  23.101  0.00  0.00    -0.210 NA
ATOM     25  C   UNL     1       3.532  -4.623  24.371  0.00  0.00    +0.187 C 
BRANCH  23  26
ATOM     26  C   UNL     1       1.805  -6.329  21.740  0.00  0.00    +0.082 C 
ATOM     27  C   UNL     1       0.533  -5.736  21.241  0.00  0.00    +0.012 C 
ATOM     28  C   UNL     1       0.435  -6.044  19.762  0.00  0.00    +0.005 C 
ATOM     29  C   UNL     1       1.134  -7.284  19.333  0.00  0.00    +0.026 C 
ATOM     30  C   UNL     1       1.348  -8.287  20.406  0.00  0.00    -0.023 C 
ATOM     31  C   UNL     1       1.690  -7.812  21.656  0.00  0.00    -0.019 C 
ATOM     32  C   UNL     1       1.895  -8.674  22.688  0.00  0.00    -0.001 C 
ATOM     33  C   UNL     1       1.749 -10.031  22.434  0.00  0.00    +0.036 C 
ATOM     34  C   UNL     1       1.410 -10.522  21.195  0.00  0.00    +0.133 C 
ATOM     35  C   UNL     1       1.203  -9.637  20.151  0.00  0.00    +0.032 C 
BRANCH  34  36
ATOM     36  O   UNL     1       1.273 -11.907  20.981  0.00  0.00    -0.506 OA
ATOM     37  H   UNL     1       1.413 -12.506  21.688  0.00  0.00    +0.292 HD
ENDBRANCH  34  36
ENDBRANCH  23  26
ENDBRANCH   1  21
BRANCH   1  38
ATOM     38  N   UNL     1       4.073  -5.647  26.990  0.00  0.00    -0.148 NA
ATOM     39  H   UNL     1       4.096  -5.605  28.009  0.00  0.00    +0.152 HD
BRANCH  38  40
ATOM     40  S   UNL     1       4.641  -7.175  26.532  0.00  0.00    +0.116 S 
ATOM     41  O   UNL     1       5.500  -7.002  25.292  0.00  0.00    -0.138 OA
ATOM     42  O   UNL     1       3.557  -8.147  26.134  0.00  0.00    -0.138 OA
BRANCH  40  43
ATOM     43  N   UNL     1       5.566  -7.958  27.752  0.00  0.00    -0.141 N 
ATOM     44  C   UNL     1       7.006  -7.999  27.689  0.00  0.00    +0.418 C 
ATOM     45  O   UNL     1       7.633  -7.482  26.763  0.00  0.00    -0.225 OA
ATOM     46  H   UNL     1       5.103  -8.387  28.508  0.00  0.00    +0.181 HD
BRANCH  44  47
ATOM     47  O   UNL     1       7.677  -8.649  28.719  0.00  0.00    -0.465 OA
ATOM     48  H   UNL     1       7.193  -9.040  29.420  0.00  0.00    +0.297 HD
ENDBRANCH  44  47
ENDBRANCH  40  43
ENDBRANCH  38  40
ENDBRANCH   1  38
BRANCH   5  49
ATOM     49  N   UNL     1       3.013  -2.923  26.112  0.00  0.00    -0.265 NA
ATOM     50  C   UNL     1       3.557  -1.871  26.580  0.00  0.00    +0.113 C 
ENDBRANCH   5  49
TORSDOF 10
