REMARK  Name = =
REMARK  9 active torsions:
REMARK  status: ('A' for Active; 'I' for Inactive)
REMARK    1  A    between atoms: C_1  and  O_29
REMARK    2  A    between atoms: C_7  and  N_25
REMARK    3  A    between atoms: C_11  and  C_15
REMARK    4  A    between atoms: N_25  and  N_26
REMARK    5  A    between atoms: O_29  and  C_30
REMARK    6  A    between atoms: C_34  and  C_38
REMARK    7  A    between atoms: C_35  and  O_37
REMARK    8  A    between atoms: C_38  and  C_40
REMARK    9  A    between atoms: C_43  and  N_46
REMARK                            x       y       z     vdW  Elec       q    Type
REMARK                         _______ _______ _______ _____ _____    ______ ____
ROOT
ATOM      1  C   UNL     1      -3.001  -3.142  30.678  0.00  0.00    +0.146 C 
ATOM      2  C   UNL     1      -2.575  -4.482  30.797  0.00  0.00    +0.035 C 
ATOM      3  C   UNL     1      -1.781  -5.109  29.882  0.00  0.00    +0.003 C 
ATOM      4  C   UNL     1      -1.378  -4.410  28.791  0.00  0.00    +0.000 C 
ATOM      5  C   UNL     1      -1.760  -3.089  28.613  0.00  0.00    +0.004 C 
ATOM      6  C   UNL     1      -2.581  -2.449  29.572  0.00  0.00    +0.049 C 
ATOM      7  C   UNL     1      -2.927  -1.131  29.380  0.00  0.00    +0.064 C 
ATOM      8  C   UNL     1      -2.451  -0.491  28.223  0.00  0.00    +0.016 C 
ATOM      9  C   UNL     1      -1.667  -1.133  27.312  0.00  0.00    +0.001 C 
ATOM     10  C   UNL     1      -1.305  -2.430  27.482  0.00  0.00    +0.000 C 
ATOM     11  C   UNL     1      -1.412  -6.427  30.080  0.00  0.00    +0.000 C 
ATOM     12  C   UNL     1      -1.853  -7.129  31.212  0.00  0.00    +0.000 C 
ATOM     13  C   UNL     1      -2.642  -6.505  32.108  0.00  0.00    +0.000 C 
ATOM     14  C   UNL     1      -3.003  -5.169  31.901  0.00  0.00    +0.003 C 
ENDROOT
BRANCH  11  15
ATOM     15  C   UNL     1      -0.470  -7.116  29.199  0.00  0.00    +0.000 C 
ATOM     16  C   UNL     1       0.801  -6.601  29.059  0.00  0.00    +0.002 C 
ATOM     17  C   UNL     1       1.750  -7.246  28.276  0.00  0.00    +0.019 C 
ATOM     18  C   UNL     1       1.470  -8.413  27.612  0.00  0.00    +0.081 C 
ATOM     19  C   UNL     1       0.193  -8.940  27.742  0.00  0.00    +0.018 C 
ATOM     20  C   UNL     1      -0.738  -8.277  28.529  0.00  0.00    +0.001 C 
ATOM     21  C   UNL     1      -0.104 -10.119  27.102  0.00  0.00    +0.003 C 
ATOM     22  C   UNL     1       0.843 -10.761  26.349  0.00  0.00    +0.021 C 
ATOM     23  C   UNL     1       2.103 -10.219  26.236  0.00  0.00    +0.099 C 
ATOM     24  N   UNL     1       2.387  -9.071  26.860  0.00  0.00    -0.244 NA
ENDBRANCH  11  15
BRANCH   7  25
ATOM     25  N   UNL     1      -3.600  -0.354  30.339  0.00  0.00    -0.263 N 
ATOM     26  H   UNL     1      -4.087  -0.781  31.081  0.00  0.00    +0.170 HD
BRANCH  25  27
ATOM     27  N   UNL     1      -3.563   1.037  30.217  0.00  0.00    -0.229 N 
ATOM     28  C   UNL     1      -4.026   1.639  29.029  0.00  0.00    +0.316 C 
ATOM     29  O   UNL     1      -4.471   1.003  28.039  0.00  0.00    -0.264 OA
ATOM     30  H   UNL     1      -3.217   1.592  30.953  0.00  0.00    +0.173 HD
ENDBRANCH  25  27
ENDBRANCH   7  25
BRANCH   1  31
ATOM     31  O   UNL     1      -3.789  -2.613  31.640  0.00  0.00    -0.457 OA
BRANCH  31  32
ATOM     32  C   UNL     1      -5.146  -2.478  31.750  0.00  0.00    +0.134 C 
ATOM     33  C   UNL     1      -5.647  -2.915  32.915  0.00  0.00    +0.075 C 
ATOM     34  C   UNL     1      -7.052  -2.885  33.270  0.00  0.00    +0.200 C 
ATOM     35  O   UNL     1      -7.376  -3.322  34.416  0.00  0.00    -0.287 OA
ATOM     36  C   UNL     1      -7.980  -2.350  32.298  0.00  0.00    +0.081 C 
ATOM     37  C   UNL     1      -7.491  -1.911  31.153  0.00  0.00    +0.121 C 
ATOM     38  C   UNL     1      -6.087  -1.928  30.785  0.00  0.00    +0.128 C 
BRANCH  37  39
ATOM     39  O   UNL     1      -8.399  -1.395  30.229  0.00  0.00    -0.509 OA
ATOM     40  H   UNL     1      -9.313  -1.369  30.434  0.00  0.00    +0.292 HD
ENDBRANCH  37  39
BRANCH  36  41
ATOM     41  C   UNL     1      -9.400  -2.182  32.604  0.00  0.00    +0.202 C 
ATOM     42  O   UNL     1      -9.969  -1.095  32.147  0.00  0.00    -0.213 OA
BRANCH  41  43
ATOM     43  C   UNL     1     -10.284  -3.020  33.367  0.00  0.00    +0.012 C 
ATOM     44  C   UNL     1     -10.295  -4.384  33.355  0.00  0.00    -0.000 C 
ATOM     45  C   UNL     1     -11.074  -5.184  34.190  0.00  0.00    +0.014 C 
ATOM     46  C   UNL     1     -11.908  -4.558  35.104  0.00  0.00    +0.042 C 
ATOM     47  C   UNL     1     -11.917  -3.174  35.132  0.00  0.00    +0.014 C 
ATOM     48  C   UNL     1     -11.147  -2.419  34.309  0.00  0.00    -0.000 C 
BRANCH  46  49
ATOM     49  N   UNL     1     -12.700  -5.364  35.964  0.00  0.00    -0.357 N 
ATOM     50  H   UNL     1     -12.653  -6.345  35.900  0.00  0.00    +0.142 HD
ATOM     51  H   UNL     1     -13.296  -4.941  36.624  0.00  0.00    +0.142 HD
ENDBRANCH  46  49
ENDBRANCH  41  43
ENDBRANCH  36  41
ENDBRANCH  31  32
ENDBRANCH   1  31
TORSDOF 9
