MODEL 1
REMARK VINA RESULT:    -7.313      0.000      0.000
REMARK INTER + INTRA:         -11.008
REMARK INTER:                 -10.733
REMARK INTRA:                  -0.275
REMARK UNBOUND:                -0.275
REMARK  Name = =
REMARK  9 active torsions:
REMARK  status: ('A' for Active; 'I' for Inactive)
REMARK    1  A    between atoms: C_1  and  N_19
REMARK    2  A    between atoms: C_1  and  C_29
REMARK    3  A    between atoms: N_19  and  N_22
REMARK    4  A    between atoms: C_20  and  C_26
REMARK    5  A    between atoms: C_23  and  O_25
REMARK    6  A    between atoms: C_26  and  O_28
REMARK    7  A    between atoms: C_29  and  C_30
REMARK    8  A    between atoms: C_29  and  N_37
REMARK    9  A    between atoms: N_32  and  N_33
REMARK                            x       y       z     vdW  Elec       q    Type
REMARK                         _______ _______ _______ _____ _____    ______ ____
ROOT
ATOM      1  C   UNL     1      62.352 166.358  36.715  0.00  0.00    +0.102 C 
ATOM      2  C   UNL     1      62.358 166.593  38.246  0.00  0.00    +0.022 C 
ATOM      3  C   UNL     1      62.984 165.287  38.722  0.00  0.00    +0.002 C 
ATOM      4  C   UNL     1      62.777 164.265  37.624  0.00  0.00    +0.002 C 
ATOM      5  C   UNL     1      61.753 164.965  36.685  0.00  0.00    +0.020 C 
ATOM      6  C   UNL     1      60.447 164.859  37.456  0.00  0.00    +0.002 C 
ATOM      7  C   UNL     1      59.928 163.440  37.169  0.00  0.00    +0.001 C 
ATOM      8  C   UNL     1      61.084 162.453  37.313  0.00  0.00    +0.008 C 
ATOM      9  C   UNL     1      62.145 163.014  38.202  0.00  0.00    +0.001 C 
ATOM     10  C   UNL     1      63.223 162.027  38.485  0.00  0.00    +0.004 C 
ATOM     11  C   UNL     1      62.740 160.787  39.178  0.00  0.00    +0.022 C 
ATOM     12  C   UNL     1      61.213 160.742  39.124  0.00  0.00    -0.037 C 
ATOM     13  C   UNL     1      60.556 160.317  40.178  0.00  0.00    +0.034 C 
ATOM     14  C   UNL     1      59.096 160.242  40.213  0.00  0.00    +0.195 C 
ATOM     15  O   UNL     1      58.485 159.839  41.222  0.00  0.00    -0.287 OA
ATOM     16  C   UNL     1      58.437 160.674  38.988  0.00  0.00    +0.038 C 
ATOM     17  C   UNL     1      59.105 161.099  37.936  0.00  0.00    -0.019 C 
ATOM     18  C   UNL     1      60.552 161.175  37.909  0.00  0.00    +0.040 C 
ENDROOT
BRANCH   1  19
ATOM     19  N   UNL     1      61.631 167.357  36.011  0.00  0.00    -0.199 N 
ATOM     20  C   UNL     1      61.046 167.097  34.748  0.00  0.00    +0.340 C 
ATOM     21  O   UNL     1      61.112 165.923  34.230  0.00  0.00    -0.261 OA
BRANCH  19  22
ATOM     22  N   UNL     1      61.424 168.616  36.575  0.00  0.00    -0.196 N 
ATOM     23  C   UNL     1      62.209 169.733  36.132  0.00  0.00    +0.415 C 
ATOM     24  O   UNL     1      63.085 169.630  35.253  0.00  0.00    -0.225 OA
ATOM     25  H   UNL     1      60.743 168.738  37.275  0.00  0.00    +0.176 HD
BRANCH  23  26
ATOM     26  O   UNL     1      61.993 171.006  36.702  0.00  0.00    -0.465 OA
ATOM     27  H   UNL     1      61.836 171.746  36.150  0.00  0.00    +0.297 HD
ENDBRANCH  23  26
ENDBRANCH  19  22
BRANCH  20  28
ATOM     28  C   UNL     1      60.351 168.065  33.932  0.00  0.00    +0.394 C 
ATOM     29  O   UNL     1      59.128 168.242  34.032  0.00  0.00    -0.240 OA
BRANCH  28  30
ATOM     30  O   UNL     1      61.023 168.838  32.998  0.00  0.00    -0.474 OA
ATOM     31  H   UNL     1      61.960 168.856  32.991  0.00  0.00    +0.296 HD
ENDBRANCH  28  30
ENDBRANCH  20  28
ENDBRANCH   1  19
BRANCH   1  32
ATOM     32  C   UNL     1      63.823 166.248  36.370  0.00  0.00    +0.168 C 
BRANCH  32  33
ATOM     33  C   UNL     1      64.084 166.306  34.897  0.00  0.00    +0.255 C 
ATOM     34  O   UNL     1      64.559 167.347  34.364  0.00  0.00    -0.272 OA
ATOM     35  N   UNL     1      63.825 165.228  34.009  0.00  0.00    -0.232 N 
ATOM     36  H   UNL     1      63.455 164.382  34.351  0.00  0.00    +0.173 HD
BRANCH  35  37
ATOM     37  N   UNL     1      64.098 165.376  32.649  0.00  0.00    -0.218 N 
ATOM     38  C   UNL     1      65.076 164.611  31.981  0.00  0.00    +0.313 C 
ATOM     39  O   UNL     1      65.708 163.762  32.673  0.00  0.00    -0.252 OA
ATOM     40  N   UNL     1      65.354 164.771  30.583  0.00  0.00    -0.312 N 
ATOM     41  H   UNL     1      63.587 166.042  32.135  0.00  0.00    +0.174 HD
ATOM     42  H   UNL     1      64.855 165.435  30.055  0.00  0.00    +0.147 HD
ATOM     43  H   UNL     1      66.043 164.217  30.151  0.00  0.00    +0.147 HD
ENDBRANCH  35  37
ENDBRANCH  32  33
BRANCH  32  44
ATOM     44  N   UNL     1      64.642 167.205  37.081  0.00  0.00    -0.207 NA
ATOM     45  C   UNL     1      65.959 166.689  37.288  0.00  0.00    +0.108 C 
ENDBRANCH  32  44
ENDBRANCH   1  32
TORSDOF 9
ENDMDL
