REMARK  Name = =
REMARK  9 active torsions:
REMARK  status: ('A' for Active; 'I' for Inactive)
REMARK    1  A    between atoms: C_1  and  N_19
REMARK    2  A    between atoms: C_1  and  C_29
REMARK    3  A    between atoms: N_19  and  N_22
REMARK    4  A    between atoms: C_20  and  C_26
REMARK    5  A    between atoms: C_23  and  O_25
REMARK    6  A    between atoms: C_26  and  O_28
REMARK    7  A    between atoms: C_29  and  C_30
REMARK    8  A    between atoms: C_29  and  N_37
REMARK    9  A    between atoms: N_32  and  N_33
REMARK                            x       y       z     vdW  Elec       q    Type
REMARK                         _______ _______ _______ _____ _____    ______ ____
ROOT
ATOM      1  C   UNL     1      52.159 155.917  27.648  0.00  0.00    +0.102 C 
ATOM      2  C   UNL     1      53.035 155.862  28.924  0.00  0.00    +0.022 C 
ATOM      3  C   UNL     1      51.955 155.856  29.999  0.00  0.00    +0.002 C 
ATOM      4  C   UNL     1      50.702 156.437  29.379  0.00  0.00    +0.002 C 
ATOM      5  C   UNL     1      51.223 157.043  28.044  0.00  0.00    +0.020 C 
ATOM      6  C   UNL     1      51.954 158.297  28.496  0.00  0.00    +0.002 C 
ATOM      7  C   UNL     1      50.853 159.353  28.690  0.00  0.00    +0.001 C 
ATOM      8  C   UNL     1      49.693 158.722  29.456  0.00  0.00    +0.008 C 
ATOM      9  C   UNL     1      50.167 157.552  30.255  0.00  0.00    +0.001 C 
ATOM     10  C   UNL     1      49.097 156.996  31.128  0.00  0.00    +0.004 C 
ATOM     11  C   UNL     1      48.569 157.976  32.135  0.00  0.00    +0.022 C 
ATOM     12  C   UNL     1      49.060 159.378  31.778  0.00  0.00    -0.037 C 
ATOM     13  C   UNL     1      49.423 160.186  32.747  0.00  0.00    +0.034 C 
ATOM     14  C   UNL     1      49.905 161.544  32.496  0.00  0.00    +0.195 C 
ATOM     15  O   UNL     1      50.248 162.299  33.426  0.00  0.00    -0.287 OA
ATOM     16  C   UNL     1      49.946 161.922  31.090  0.00  0.00    +0.038 C 
ATOM     17  C   UNL     1      49.581 161.104  30.125  0.00  0.00    -0.019 C 
ATOM     18  C   UNL     1      49.108 159.759  30.380  0.00  0.00    +0.040 C 
ENDROOT
BRANCH   1  19
ATOM     19  N   UNL     1      52.920 156.131  26.470  0.00  0.00    -0.199 N 
ATOM     20  C   UNL     1      54.009 157.036  26.445  0.00  0.00    +0.340 C 
ATOM     21  O   UNL     1      54.368 157.650  27.515  0.00  0.00    -0.261 OA
BRANCH  19  22
ATOM     22  N   UNL     1      52.653 155.405  25.309  0.00  0.00    -0.196 N 
ATOM     23  C   UNL     1      53.608 154.445  24.834  0.00  0.00    +0.415 C 
ATOM     24  O   UNL     1      54.686 154.226  25.417  0.00  0.00    -0.225 OA
ATOM     25  H   UNL     1      51.813 155.551  24.817  0.00  0.00    +0.176 HD
BRANCH  23  26
ATOM     26  O   UNL     1      53.332 153.709  23.661  0.00  0.00    -0.465 OA
ATOM     27  H   UNL     1      52.530 153.849  23.198  0.00  0.00    +0.297 HD
ENDBRANCH  23  26
ENDBRANCH  19  22
BRANCH  20  28
ATOM     28  C   UNL     1      54.798 157.364  25.281  0.00  0.00    +0.394 C 
ATOM     29  O   UNL     1      54.693 156.727  24.222  0.00  0.00    -0.240 OA
BRANCH  28  30
ATOM     30  O   UNL     1      55.712 158.406  25.298  0.00  0.00    -0.474 OA
ATOM     31  H   UNL     1      55.827 158.916  26.076  0.00  0.00    +0.296 HD
ENDBRANCH  28  30
ENDBRANCH  20  28
ENDBRANCH   1  19
BRANCH   1  32
ATOM     32  C   UNL     1      51.382 154.617  27.698  0.00  0.00    +0.168 C 
BRANCH  32  33
ATOM     33  C   UNL     1      52.152 153.455  27.153  0.00  0.00    +0.255 C 
ATOM     34  O   UNL     1      53.265 153.125  27.649  0.00  0.00    -0.272 OA
ATOM     35  N   UNL     1      51.705 152.655  26.067  0.00  0.00    -0.232 N 
ATOM     36  H   UNL     1      50.845 152.850  25.629  0.00  0.00    +0.173 HD
BRANCH  35  37
ATOM     37  N   UNL     1      52.493 151.592  25.626  0.00  0.00    -0.218 N 
ATOM     38  C   UNL     1      52.460 150.318  26.229  0.00  0.00    +0.313 C 
ATOM     39  O   UNL     1      51.669 150.167  27.204  0.00  0.00    -0.252 OA
ATOM     40  N   UNL     1      53.276 149.230  25.772  0.00  0.00    -0.312 N 
ATOM     41  H   UNL     1      53.097 151.737  24.862  0.00  0.00    +0.174 HD
ATOM     42  H   UNL     1      53.888 149.359  25.012  0.00  0.00    +0.147 HD
ATOM     43  H   UNL     1      53.224 148.354  26.218  0.00  0.00    +0.147 HD
ENDBRANCH  35  37
ENDBRANCH  32  33
BRANCH  32  44
ATOM     44  N   UNL     1      50.861 154.323  29.015  0.00  0.00    -0.207 NA
ATOM     45  C   UNL     1      51.410 153.100  29.514  0.00  0.00    +0.108 C 
ENDBRANCH  32  44
ENDBRANCH   1  32
TORSDOF 9
