MODEL 1
REMARK VINA RESULT:    -5.539      0.000      0.000
REMARK INTER + INTRA:          -6.761
REMARK INTER:                  -6.673
REMARK INTRA:                  -0.089
REMARK UNBOUND:                -0.089
REMARK  Name = =
REMARK  4 active torsions:
REMARK  status: ('A' for Active; 'I' for Inactive)
REMARK    1  A    between atoms: N_1  and  C_14
REMARK    2  A    between atoms: C_5  and  S_18
REMARK    3  A    between atoms: S_18  and  C_19
REMARK    4  A    between atoms: C_19  and  O_21
REMARK                            x       y       z     vdW  Elec       q    Type
REMARK                         _______ _______ _______ _____ _____    ______ ____
ROOT
ATOM      1  N   UNL     1      59.702 160.996  39.545  0.00  0.00    -0.183 N 
ATOM      2  C   UNL     1      60.717 161.821  40.062  0.00  0.00    +0.311 C 
ATOM      3  O   UNL     1      61.004 161.724  41.288  0.00  0.00    -0.252 OA
ATOM      4  N   UNL     1      61.465 162.771  39.329  0.00  0.00    -0.313 N 
ATOM      5  C   UNL     1      59.377 161.095  38.175  0.00  0.00    +0.294 C 
ATOM      6  O   UNL     1      58.468 160.376  37.642  0.00  0.00    -0.261 OA
ATOM      7  H   UNL     1      61.293 162.898  38.368  0.00  0.00    +0.147 HD
ATOM      8  H   UNL     1      62.158 163.306  39.779  0.00  0.00    +0.147 HD
ENDROOT
BRANCH   1  16
ATOM      9  C   UNL     1      57.152 159.631  41.856  0.00  0.00    +0.052 C 
ATOM     10  C   UNL     1      57.876 160.453  41.019  0.00  0.00    +0.052 C 
ATOM     11  S   UNL     1      57.442 162.138  40.611  0.00  0.00    -0.111 S 
ATOM     12  C   UNL     1      56.837 163.061  42.008  0.00  0.00    +0.064 C 
ATOM     13  C   UNL     1      56.096 162.283  43.030  0.00  0.00    +0.033 C 
ATOM     14  C   UNL     1      55.236 161.186  42.513  0.00  0.00    +0.088 C 
ATOM     15  N   UNL     1      55.948 159.909  42.556  0.00  0.00    -0.332 N 
ATOM     16  C   UNL     1      59.029 160.088  40.386  0.00  0.00    +0.070 C 
ATOM     17  C   UNL     1      59.491 158.797  40.610  0.00  0.00    +0.016 C 
ATOM     18  C   UNL     1      58.792 157.935  41.446  0.00  0.00    +0.003 C 
ATOM     19  C   UNL     1      57.631 158.352  42.063  0.00  0.00    +0.015 C 
ATOM     20  H   UNL     1      55.564 159.191  43.110  0.00  0.00    +0.147 HD
ENDBRANCH   1  16
BRANCH   5  21
ATOM     21  S   UNL     1      60.222 162.240  37.097  0.00  0.00    +0.014 S 
BRANCH  21  22
ATOM     22  C   UNL     1      59.212 162.712  35.715  0.00  0.00    +0.207 C 
ATOM     23  S   UNL     1      59.199 164.273  35.254  0.00  0.00    -0.004 S 
BRANCH  22  24
ATOM     24  O   UNL     1      58.455 161.758  35.053  0.00  0.00    -0.496 OA
ATOM     25  H   UNL     1      58.543 160.852  35.276  0.00  0.00    +0.293 HD
ENDBRANCH  22  24
ENDBRANCH  21  22
ENDBRANCH   5  21
TORSDOF 4
ENDMDL
