REMARK  Name = =
REMARK  4 active torsions:
REMARK  status: ('A' for Active; 'I' for Inactive)
REMARK    1  A    between atoms: N_1  and  C_14
REMARK    2  A    between atoms: C_5  and  S_18
REMARK    3  A    between atoms: S_18  and  C_19
REMARK    4  A    between atoms: C_19  and  O_21
REMARK                            x       y       z     vdW  Elec       q    Type
REMARK                         _______ _______ _______ _____ _____    ______ ____
ROOT
ATOM      1  N   UNL     1      51.498 159.272  30.693  0.00  0.00    -0.183 N 
ATOM      2  C   UNL     1      52.663 159.949  30.290  0.00  0.00    +0.311 C 
ATOM      3  O   UNL     1      52.865 161.113  30.734  0.00  0.00    -0.252 OA
ATOM      4  N   UNL     1      53.653 159.444  29.415  0.00  0.00    -0.313 N 
ATOM      5  C   UNL     1      51.266 157.968  30.204  0.00  0.00    +0.294 C 
ATOM      6  O   UNL     1      50.230 157.298  30.530  0.00  0.00    -0.261 OA
ATOM      7  H   UNL     1      53.558 158.542  29.032  0.00  0.00    +0.147 HD
ATOM      8  H   UNL     1      54.437 159.994  29.189  0.00  0.00    +0.147 HD
ENDROOT
BRANCH   1  16
ATOM      9  C   UNL     1      48.380 160.834  31.935  0.00  0.00    +0.052 C 
ATOM     10  C   UNL     1      49.335 160.230  31.145  0.00  0.00    +0.052 C 
ATOM     11  S   UNL     1      49.112 159.782  29.429  0.00  0.00    -0.111 S 
ATOM     12  C   UNL     1      48.232 161.015  28.495  0.00  0.00    +0.064 C 
ATOM     13  C   UNL     1      47.217 161.796  29.243  0.00  0.00    +0.033 C 
ATOM     14  C   UNL     1      46.452 161.047  30.274  0.00  0.00    +0.088 C 
ATOM     15  N   UNL     1      47.057 161.223  31.594  0.00  0.00    -0.332 N 
ATOM     16  C   UNL     1      50.587 159.890  31.571  0.00  0.00    +0.070 C 
ATOM     17  C   UNL     1      50.904 160.179  32.892  0.00  0.00    +0.016 C 
ATOM     18  C   UNL     1      49.972 160.787  33.723  0.00  0.00    +0.003 C 
ATOM     19  C   UNL     1      48.719 161.111  33.245  0.00  0.00    +0.015 C 
ATOM     20  H   UNL     1      46.508 161.641  32.296  0.00  0.00    +0.147 HD
ENDBRANCH   1  16
BRANCH   5  21
ATOM     21  S   UNL     1      52.412 157.172  29.091  0.00  0.00    +0.014 S 
BRANCH  21  22
ATOM     22  C   UNL     1      51.798 155.606  28.521  0.00  0.00    +0.207 C 
ATOM     23  S   UNL     1      52.762 154.681  27.592  0.00  0.00    -0.004 S 
BRANCH  22  24
ATOM     24  O   UNL     1      50.521 155.195  28.869  0.00  0.00    -0.496 OA
ATOM     25  H   UNL     1      49.982 155.743  29.405  0.00  0.00    +0.293 HD
ENDBRANCH  22  24
ENDBRANCH  21  22
ENDBRANCH   5  21
TORSDOF 4
