REMARK  Name = =
REMARK  11 active torsions:
REMARK  status: ('A' for Active; 'I' for Inactive)
REMARK    1  A    between atoms: C_2  and  N_12
REMARK    2  A    between atoms: C_9  and  O_30
REMARK    3  A    between atoms: C_10  and  C_22
REMARK    4  A    between atoms: C_11  and  O_31
REMARK    5  A    between atoms: C_17  and  O_21
REMARK    6  A    between atoms: C_23  and  O_29
REMARK    7  A    between atoms: C_26  and  O_28
REMARK    8  A    between atoms: O_31  and  C_32
REMARK    9  A    between atoms: C_33  and  C_34
REMARK   10  A    between atoms: C_37  and  C_40
REMARK   11  A    between atoms: N_41  and  O_42
REMARK                            x       y       z     vdW  Elec       q    Type
REMARK                         _______ _______ _______ _____ _____    ______ ____
ROOT
ATOM      1  O   UNL     1      -1.554  -3.086  29.305  0.00  0.00    -0.459 OA
ATOM      2  C   UNL     1      -1.163  -1.956  28.546  0.00  0.00    +0.258 C 
ATOM      3  C   UNL     1      -1.244  -0.714  29.409  0.00  0.00    +0.135 C 
ATOM      4  C   UNL     1      -2.654  -0.575  29.858  0.00  0.00    +0.184 C 
ATOM      5  O   UNL     1      -3.251   0.521  29.908  0.00  0.00    -0.291 OA
ATOM      6  C   UNL     1      -3.347  -1.800  30.252  0.00  0.00    +0.104 C 
ATOM      7  C   UNL     1      -2.770  -3.026  29.961  0.00  0.00    +0.149 C 
ATOM      8  C   UNL     1      -3.454  -4.164  30.349  0.00  0.00    +0.074 C 
ATOM      9  C   UNL     1      -4.664  -4.093  31.002  0.00  0.00    +0.140 C 
ATOM     10  C   UNL     1      -5.204  -2.833  31.273  0.00  0.00    +0.072 C 
ATOM     11  C   UNL     1      -4.546  -1.680  30.899  0.00  0.00    +0.154 C 
ENDROOT
BRANCH   2  12
ATOM     12  N   UNL     1       0.113  -2.128  27.920  0.00  0.00    -0.220 N 
ATOM     13  C   UNL     1       1.201  -2.766  28.391  0.00  0.00    +0.163 C 
ATOM     14  N   UNL     1       1.416  -3.408  29.540  0.00  0.00    -0.207 NA
ATOM     15  C   UNL     1       2.608  -3.986  29.811  0.00  0.00    +0.203 C 
ATOM     16  N   UNL     1       3.593  -3.906  28.892  0.00  0.00    -0.188 NA
ATOM     17  C   UNL     1       3.406  -3.266  27.725  0.00  0.00    +0.244 C 
ATOM     18  C   UNL     1       2.201  -2.679  27.447  0.00  0.00    +0.167 C 
ATOM     19  N   UNL     1       1.728  -1.994  26.408  0.00  0.00    -0.220 NA
ATOM     20  C   UNL     1       0.457  -1.661  26.700  0.00  0.00    +0.172 C 
BRANCH  17  21
ATOM     21  O   UNL     1       4.471  -3.230  26.832  0.00  0.00    -0.491 OA
ATOM     22  H   UNL     1       5.283  -3.642  27.054  0.00  0.00    +0.294 HD
ENDBRANCH  17  21
ENDBRANCH   2  12
BRANCH  10  23
ATOM     23  C   UNL     1      -6.465  -2.760  31.954  0.00  0.00    +0.043 C 
ATOM     24  C   UNL     1      -6.506  -2.799  33.332  0.00  0.00    +0.134 C 
ATOM     25  C   UNL     1      -7.721  -2.728  33.981  0.00  0.00    +0.040 C 
ATOM     26  C   UNL     1      -8.910  -2.618  33.280  0.00  0.00    +0.040 C 
ATOM     27  C   UNL     1      -8.835  -2.581  31.894  0.00  0.00    +0.134 C 
ATOM     28  C   UNL     1      -7.631  -2.650  31.224  0.00  0.00    +0.040 C 
BRANCH  27  29
ATOM     29  O   UNL     1     -10.037  -2.470  31.205  0.00  0.00    -0.506 OA
ATOM     30  H   UNL     1     -10.845  -2.424  31.677  0.00  0.00    +0.292 HD
ENDBRANCH  27  29
BRANCH  24  31
ATOM     31  O   UNL     1      -5.346  -2.910  34.113  0.00  0.00    -0.506 OA
ATOM     32  H   UNL     1      -4.506  -2.960  33.700  0.00  0.00    +0.292 HD
ENDBRANCH  24  31
ENDBRANCH  10  23
BRANCH   9  33
ATOM     33  O   UNL     1      -5.319  -5.256  31.375  0.00  0.00    -0.505 OA
ATOM     34  H   UNL     1      -4.938  -6.090  31.183  0.00  0.00    +0.292 HD
ENDBRANCH   9  33
BRANCH  11  35
ATOM     35  O   UNL     1      -5.124  -0.436  31.190  0.00  0.00    -0.450 OA
BRANCH  35  36
ATOM     36  C   UNL     1      -6.382  -0.207  30.613  0.00  0.00    +0.180 C 
ATOM     37  C   UNL     1      -7.192   0.728  31.067  0.00  0.00    +0.041 C 
BRANCH  37  38
ATOM     38  C   UNL     1      -8.491   1.012  30.523  0.00  0.00    +0.003 C 
ATOM     39  C   UNL     1      -9.143   2.176  30.910  0.00  0.00    +0.000 C 
ATOM     40  C   UNL     1     -10.380   2.543  30.453  0.00  0.00    +0.002 C 
ATOM     41  C   UNL     1     -11.046   1.737  29.558  0.00  0.00    +0.022 C 
ATOM     42  C   UNL     1     -10.422   0.582  29.161  0.00  0.00    +0.002 C 
ATOM     43  C   UNL     1      -9.158   0.212  29.631  0.00  0.00    +0.000 C 
BRANCH  41  44
ATOM     44  C   UNL     1     -12.369   2.108  29.056  0.00  0.00    +0.140 C 
ATOM     45  N   UNL     1     -12.903   3.210  29.454  0.00  0.00    -0.085 NA
BRANCH  45  46
ATOM     46  O   UNL     1     -14.131   3.555  28.988  0.00  0.00    -0.409 OA
ATOM     47  H   UNL     1     -14.531   4.354  29.269  0.00  0.00    +0.328 HD
ENDBRANCH  45  46
ENDBRANCH  41  44
ENDBRANCH  37  38
ENDBRANCH  35  36
ENDBRANCH  11  35
TORSDOF 11
