REMARK  Name = =
REMARK  9 active torsions:
REMARK  status: ('A' for Active; 'I' for Inactive)
REMARK    1  A    between atoms: C_1  and  C_13
REMARK    2  A    between atoms: C_1  and  S_18
REMARK    3  A    between atoms: C_2  and  C_10
REMARK    4  A    between atoms: C_6  and  C_7
REMARK    5  A    between atoms: C_7  and  O_9
REMARK    6  A    between atoms: C_10  and  O_12
REMARK    7  A    between atoms: C_14  and  C_15
REMARK    8  A    between atoms: C_15  and  O_17
REMARK    9  A    between atoms: S_18  and  N_19
REMARK                            x       y       z     vdW  Elec       q    Type
REMARK                         _______ _______ _______ _____ _____    ______ ____
ROOT
ATOM      1  C   UNL     1      50.993 157.862  29.413  0.00  0.00    +0.134 C 
ATOM      2  C   UNL     1      50.112 156.725  29.576  0.00  0.00    +0.086 C 
ATOM      3  C   UNL     1      50.561 155.560  29.980  0.00  0.00    +0.066 C 
ATOM      4  N   UNL     1      51.926 155.304  30.292  0.00  0.00    -0.311 N 
ATOM      5  C   UNL     1      52.794 156.416  30.133  0.00  0.00    +0.066 C 
ATOM      6  C   UNL     1      52.390 157.598  29.731  0.00  0.00    +0.086 C 
ATOM      7  H   UNL     1      52.244 154.423  30.595  0.00  0.00    +0.152 HD
ENDROOT
BRANCH   6   8
ATOM      8  C   UNL     1      53.416 158.644  29.619  0.00  0.00    +0.337 C 
ATOM      9  O   UNL     1      53.136 159.788  30.014  0.00  0.00    -0.245 OA
BRANCH   8  10
ATOM     10  O   UNL     1      54.647 158.373  29.095  0.00  0.00    -0.477 OA
ATOM     11  H   UNL     1      54.850 157.507  28.799  0.00  0.00    +0.295 HD
ENDBRANCH   8  10
ENDBRANCH   6   8
BRANCH   2  12
ATOM     12  C   UNL     1      48.666 156.802  29.302  0.00  0.00    +0.337 C 
ATOM     13  O   UNL     1      48.081 157.881  29.581  0.00  0.00    -0.245 OA
BRANCH  12  14
ATOM     14  O   UNL     1      47.971 155.762  28.769  0.00  0.00    -0.477 OA
ATOM     15  H   UNL     1      48.411 154.961  28.563  0.00  0.00    +0.295 HD
ENDBRANCH  12  14
ENDBRANCH   2  12
BRANCH   1  16
ATOM     16  C   UNL     1      50.486 159.092  30.100  0.00  0.00    +0.000 C 
ATOM     17  C   UNL     1      50.210 159.143  31.372  0.00  0.00    +0.079 C 
BRANCH  17  18
ATOM     18  C   UNL     1      49.724 160.355  31.985  0.00  0.00    +0.338 C 
ATOM     19  O   UNL     1      49.682 160.459  33.241  0.00  0.00    -0.245 OA
BRANCH  18  20
ATOM     20  O   UNL     1      49.294 161.429  31.189  0.00  0.00    -0.477 OA
ATOM     21  H   UNL     1      49.322 161.360  30.255  0.00  0.00    +0.295 HD
ENDBRANCH  18  20
ENDBRANCH  17  18
ENDBRANCH   1  16
BRANCH   1  22
ATOM     22  S   UNL     1      50.957 158.259  27.608  0.00  0.00    +0.042 S 
BRANCH  22  23
ATOM     23  N   UNL     1      51.952 157.158  26.718  0.00  0.00    +0.006 NA
ATOM     24  O   UNL     1      53.144 157.132  26.782  0.00  0.00    -0.136 OA
ENDBRANCH  22  23
ENDBRANCH   1  22
TORSDOF 9
