REMARK  Name = =
REMARK  13 active torsions:
REMARK  status: ('A' for Active; 'I' for Inactive)
REMARK    1  A    between atoms: C_1  and  C_13
REMARK    2  A    between atoms: C_1  and  S_22
REMARK    3  A    between atoms: C_2  and  C_10
REMARK    4  A    between atoms: C_6  and  C_7
REMARK    5  A    between atoms: C_7  and  O_9
REMARK    6  A    between atoms: C_10  and  O_12
REMARK    7  A    between atoms: C_13  and  S_18
REMARK    8  A    between atoms: C_14  and  C_15
REMARK    9  A    between atoms: C_15  and  O_17
REMARK   10  A    between atoms: S_18  and  S_19
REMARK   11  A    between atoms: S_18  and  S_20
REMARK   12  A    between atoms: S_20  and  S_21
REMARK   13  A    between atoms: S_22  and  N_23
REMARK                            x       y       z     vdW  Elec       q    Type
REMARK                         _______ _______ _______ _____ _____    ______ ____
ROOT
ATOM      1  C   UNL     1      50.155 159.825  30.346  0.00  0.00    +0.139 C 
ATOM      2  C   UNL     1      50.886 161.020  29.979  0.00  0.00    +0.087 C 
ATOM      3  C   UNL     1      50.668 161.693  28.871  0.00  0.00    +0.066 C 
ATOM      4  N   UNL     1      49.703 161.310  27.910  0.00  0.00    -0.311 N 
ATOM      5  C   UNL     1      48.983 160.137  28.222  0.00  0.00    +0.066 C 
ATOM      6  C   UNL     1      49.161 159.434  29.310  0.00  0.00    +0.087 C 
ATOM      7  H   UNL     1      49.545 161.824  27.085  0.00  0.00    +0.152 HD
ENDROOT
BRANCH   6   8
ATOM      8  C   UNL     1      48.337 158.227  29.464  0.00  0.00    +0.337 C 
ATOM      9  O   UNL     1      47.117 158.287  29.245  0.00  0.00    -0.245 OA
BRANCH   8  10
ATOM     10  O   UNL     1      48.885 157.046  29.839  0.00  0.00    -0.477 OA
ATOM     11  H   UNL     1      49.805 156.989  30.007  0.00  0.00    +0.295 HD
ENDBRANCH   8  10
ENDBRANCH   6   8
BRANCH   2  12
ATOM     12  C   UNL     1      51.990 161.499  30.859  0.00  0.00    +0.337 C 
ATOM     13  O   UNL     1      52.363 162.730  30.784  0.00  0.00    -0.245 OA
BRANCH  12  14
ATOM     14  O   UNL     1      52.667 160.752  31.757  0.00  0.00    -0.477 OA
ATOM     15  H   UNL     1      52.453 159.847  31.869  0.00  0.00    +0.295 HD
ENDBRANCH  12  14
ENDBRANCH   2  12
BRANCH   1  16
ATOM     16  C   UNL     1      49.372 160.029  31.628  0.00  0.00    +0.026 C 
ATOM     17  C   UNL     1      48.067 160.027  31.525  0.00  0.00    +0.085 C 
BRANCH  17  18
ATOM     18  C   UNL     1      47.093 160.198  32.557  0.00  0.00    +0.338 C 
ATOM     19  O   UNL     1      46.059 159.465  32.572  0.00  0.00    -0.245 OA
BRANCH  18  20
ATOM     20  O   UNL     1      47.134 161.114  33.601  0.00  0.00    -0.477 OA
ATOM     21  H   UNL     1      47.859 161.703  33.679  0.00  0.00    +0.295 HD
ENDBRANCH  18  20
ENDBRANCH  17  18
BRANCH  16  22
ATOM     22  S   UNL     1      50.143 160.262  33.170  0.00  0.00    -0.122 S 
ATOM     23  H   UNL     1      51.429 159.909  32.902  0.00  0.00    +0.109 HD
BRANCH  22  24
ATOM     24  S   UNL     1      49.891 159.363  34.424  0.00  0.00    -0.118 S 
ATOM     25  H   UNL     1      48.623 159.560  34.876  0.00  0.00    +0.113 HD
ENDBRANCH  22  24
BRANCH  22  26
ATOM     26  S   UNL     1      49.781 161.738  33.576  0.00  0.00    -0.036 S 
BRANCH  26  27
ATOM     27  S   UNL     1      50.676 163.383  32.992  0.00  0.00    -0.100 S 
ATOM     28  H   UNL     1      50.068 164.457  33.563  0.00  0.00    +0.115 HD
ENDBRANCH  26  27
ENDBRANCH  22  26
ENDBRANCH  16  22
ENDBRANCH   1  16
BRANCH   1  29
ATOM     29  S   UNL     1      51.241 158.381  30.565  0.00  0.00    +0.042 S 
BRANCH  29  30
ATOM     30  N   UNL     1      52.316 158.184  29.220  0.00  0.00    +0.006 NA
ATOM     31  O   UNL     1      52.268 157.191  28.578  0.00  0.00    -0.136 OA
ENDBRANCH  29  30
ENDBRANCH   1  29
TORSDOF 13
