REMARK  Name = =
REMARK  2 active torsions:
REMARK  status: ('A' for Active; 'I' for Inactive)
REMARK    1  A    between atoms: C_4  and  O_12
REMARK    2  A    between atoms: C_5  and  O_11
REMARK                            x       y       z     vdW  Elec       q    Type
REMARK                         _______ _______ _______ _____ _____    ______ ____
ROOT
ATOM      1  C   UNL     1      51.775 158.481  29.793  0.00  0.00    +0.018 C 
ATOM      2  C   UNL     1      50.447 158.811  29.784  0.00  0.00    -0.015 C 
ATOM      3  C   UNL     1      50.019 160.046  30.193  0.00  0.00    +0.036 C 
ATOM      4  C   UNL     1      50.959 161.000  30.632  0.00  0.00    +0.167 C 
ATOM      5  C   UNL     1      52.292 160.642  30.631  0.00  0.00    +0.168 C 
ATOM      6  C   UNL     1      52.744 159.405  30.223  0.00  0.00    +0.041 C 
ATOM      7  C   UNL     1      49.476 157.807  29.331  0.00  0.00    +0.053 C 
ATOM      8  C   UNL     1      49.938 156.517  30.027  0.00  0.00    +0.130 C 
ATOM      9  N   UNL     1      51.216 156.103  29.512  0.00  0.00    -0.269 NA
ATOM     10  C   UNL     1      52.171 157.132  29.333  0.00  0.00    +0.093 C 
ENDROOT
BRANCH   5  11
ATOM     11  O   UNL     1      53.204 161.583  31.063  0.00  0.00    -0.503 OA
ATOM     12  H   UNL     1      52.909 162.427  31.343  0.00  0.00    +0.292 HD
ENDBRANCH   5  11
BRANCH   4  13
ATOM     13  O   UNL     1      50.503 162.248  31.044  0.00  0.00    -0.503 OA
ATOM     14  H   UNL     1      49.586 162.441  31.025  0.00  0.00    +0.292 HD
ENDBRANCH   4  13
TORSDOF 2
