MODEL 1
REMARK VINA RESULT:    -9.850      0.000      0.000
REMARK INTER + INTRA:         -12.496
REMARK INTER:                 -13.305
REMARK INTRA:                   0.809
REMARK UNBOUND:                 0.809
REMARK  Name = =
REMARK  6 active torsions:
REMARK  status: ('A' for Active; 'I' for Inactive)
REMARK    1  A    between atoms: N_1  and  S_15
REMARK    2  A    between atoms: C_3  and  C_5
REMARK    3  A    between atoms: S_15  and  O_18
REMARK    4  A    between atoms: O_18  and  C_19
REMARK    5  A    between atoms: S_20  and  C_21
REMARK    6  A    between atoms: C_21  and  O_23
REMARK                            x       y       z     vdW  Elec       q    Type
REMARK                         _______ _______ _______ _____ _____    ______ ____
ROOT
ATOM      1  N   UNL     1      52.049 155.316  27.703  0.00  0.00    -0.146 NA
ATOM      2  C   UNL     1      50.737 154.974  28.242  0.00  0.00    +0.103 C 
ATOM      3  C   UNL     1      51.201 155.523  29.574  0.00  0.00    +0.058 C 
ATOM      4  C   UNL     1      52.564 155.195  29.059  0.00  0.00    +0.103 C 
ENDROOT
BRANCH   3   5
ATOM      5  C   UNL     1      50.900 156.931  29.816  0.00  0.00    -0.020 C 
ATOM      6  C   UNL     1      49.662 157.318  30.273  0.00  0.00    -0.004 C 
ATOM      7  C   UNL     1      49.360 158.652  30.508  0.00  0.00    -0.000 C 
ATOM      8  C   UNL     1      50.299 159.627  30.289  0.00  0.00    -0.000 C 
ATOM      9  C   UNL     1      51.554 159.222  29.823  0.00  0.00    -0.000 C 
ATOM     10  C   UNL     1      51.851 157.895  29.591  0.00  0.00    -0.004 C 
ATOM     11  C   UNL     1      50.051 161.054  30.514  0.00  0.00    -0.000 C 
ATOM     12  C   UNL     1      48.692 161.412  31.007  0.00  0.00    -0.000 C 
ATOM     13  C   UNL     1      47.753 160.297  31.214  0.00  0.00    -0.000 C 
ATOM     14  C   UNL     1      48.052 159.037  30.988  0.00  0.00    -0.000 C 
ENDBRANCH   3   5
BRANCH   1  15
ATOM     15  S   UNL     1      52.728 154.083  26.705  0.00  0.00    +0.093 S 
ATOM     16  O   UNL     1      51.677 153.548  25.805  0.00  0.00    -0.045 OA
ATOM     17  O   UNL     1      53.250 152.937  27.527  0.00  0.00    -0.045 OA
BRANCH  15  18
ATOM     18  O   UNL     1      53.966 154.773  25.771  0.00  0.00    -0.339 OA
BRANCH  18  19
ATOM     19  C   UNL     1      53.904 154.639  24.393  0.00  0.00    +0.238 C 
ATOM     20  S   UNL     1      54.231 153.193  23.727  0.00  0.00    -0.045 S 
ATOM     21  H   UNL     1      55.269 153.387  22.871  0.00  0.00    +0.110 HD
BRANCH  20  22
ATOM     22  C   UNL     1      54.668 151.785  24.755  0.00  0.00    +0.364 C 
ATOM     23  O   UNL     1      55.785 151.750  25.330  0.00  0.00    -0.238 OA
BRANCH  22  24
ATOM     24  O   UNL     1      53.795 150.720  24.931  0.00  0.00    -0.437 OA
ATOM     25  C   UNL     1      54.245 149.414  24.643  0.00  0.00    +0.256 C 
ENDBRANCH  22  24
ENDBRANCH  20  22
ENDBRANCH  18  19
ENDBRANCH  15  18
ENDBRANCH   1  15
TORSDOF 6
ENDMDL
