REMARK  Name = =
REMARK  6 active torsions:
REMARK  status: ('A' for Active; 'I' for Inactive)
REMARK    1  A    between atoms: N_1  and  S_15
REMARK    2  A    between atoms: C_3  and  C_5
REMARK    3  A    between atoms: S_15  and  O_18
REMARK    4  A    between atoms: O_18  and  C_19
REMARK    5  A    between atoms: S_20  and  C_21
REMARK    6  A    between atoms: C_21  and  O_23
REMARK                            x       y       z     vdW  Elec       q    Type
REMARK                         _______ _______ _______ _____ _____    ______ ____
ROOT
ATOM      1  N   UNL     1      51.357 157.966  28.935  0.00  0.00    -0.146 NA
ATOM      2  C   UNL     1      52.462 157.325  29.641  0.00  0.00    +0.103 C 
ATOM      3  C   UNL     1      51.920 155.993  29.168  0.00  0.00    +0.058 C 
ATOM      4  C   UNL     1      50.619 156.723  29.098  0.00  0.00    +0.103 C 
ENDROOT
BRANCH   3   5
ATOM      5  C   UNL     1      52.474 155.496  27.912  0.00  0.00    -0.020 C 
ATOM      6  C   UNL     1      52.619 154.146  27.691  0.00  0.00    -0.004 C 
ATOM      7  C   UNL     1      53.144 153.658  26.503  0.00  0.00    -0.000 C 
ATOM      8  C   UNL     1      53.534 154.518  25.509  0.00  0.00    -0.000 C 
ATOM      9  C   UNL     1      53.384 155.888  25.745  0.00  0.00    -0.000 C 
ATOM     10  C   UNL     1      52.861 156.370  26.927  0.00  0.00    -0.004 C 
ATOM     11  C   UNL     1      54.097 154.074  24.231  0.00  0.00    -0.000 C 
ATOM     12  C   UNL     1      54.231 152.602  24.050  0.00  0.00    -0.000 C 
ATOM     13  C   UNL     1      53.784 151.759  25.172  0.00  0.00    -0.000 C 
ATOM     14  C   UNL     1      53.288 152.235  26.292  0.00  0.00    -0.000 C 
ENDBRANCH   3   5
BRANCH   1  15
ATOM     15  S   UNL     1      50.598 159.224  29.839  0.00  0.00    +0.093 S 
ATOM     16  O   UNL     1      49.602 159.911  28.982  0.00  0.00    -0.045 OA
ATOM     17  O   UNL     1      51.597 160.253  30.292  0.00  0.00    -0.045 OA
BRANCH  15  18
ATOM     18  O   UNL     1      49.805 158.524  31.167  0.00  0.00    -0.339 OA
BRANCH  18  19
ATOM     19  C   UNL     1      48.435 158.698  31.282  0.00  0.00    +0.238 C 
ATOM     20  S   UNL     1      47.864 160.123  31.814  0.00  0.00    -0.045 S 
ATOM     21  H   UNL     1      47.128 159.855  32.926  0.00  0.00    +0.110 HD
BRANCH  20  22
ATOM     22  C   UNL     1      48.986 161.458  32.250  0.00  0.00    +0.364 C 
ATOM     23  O   UNL     1      48.551 162.632  32.362  0.00  0.00    -0.238 OA
BRANCH  22  24
ATOM     24  O   UNL     1      50.337 161.225  32.466  0.00  0.00    -0.437 OA
ATOM     25  C   UNL     1      51.204 162.328  32.619  0.00  0.00    +0.256 C 
ENDBRANCH  22  24
ENDBRANCH  20  22
ENDBRANCH  18  19
ENDBRANCH  15  18
ENDBRANCH   1  15
TORSDOF 6
