REMARK  Name = =
REMARK  1 active torsions:
REMARK  status: ('A' for Active; 'I' for Inactive)
REMARK    1  A    between atoms: C_3  and  C_8
REMARK                            x       y       z     vdW  Elec       q    Type
REMARK                         _______ _______ _______ _____ _____    ______ ____
ROOT
ATOM      1  C   UNL     1      -4.328  -4.138  30.461  0.00  0.00    +0.001 C 
ATOM      2  C   UNL     1      -4.252  -5.395  31.290  0.00  0.00    +0.007 C 
ATOM      3  C   UNL     1      -3.209  -6.321  30.705  0.00  0.00    +0.060 C 
ATOM      4  C   UNL     1      -2.186  -5.560  29.951  0.00  0.00    +0.150 C 
ATOM      5  O   UNL     1      -1.542  -6.079  29.022  0.00  0.00    -0.296 OA
ATOM      6  C   UNL     1      -1.947  -4.149  30.325  0.00  0.00    +0.064 C 
ATOM      7  C   UNL     1      -3.041  -3.408  30.591  0.00  0.00    +0.008 C 
ENDROOT
BRANCH   3   8
ATOM      8  C   UNL     1      -2.644  -7.278  31.633  0.00  0.00    +0.037 C 
ATOM      9  C   UNL     1      -2.234  -6.886  32.998  0.00  0.00    +0.032 C 
ATOM     10  C   UNL     1      -1.277  -8.043  33.344  0.00  0.00    +0.115 C 
ATOM     11  O   UNL     1      -1.325  -8.916  32.225  0.00  0.00    -0.359 OA
ATOM     12  C   UNL     1      -1.320  -7.934  31.191  0.00  0.00    +0.116 C 
ATOM     13  C   UNL     1      -0.138  -7.080  31.601  0.00  0.00    +0.032 C 
ATOM     14  C   UNL     1       0.141  -7.512  33.055  0.00  0.00    +0.032 C 
ENDBRANCH   3   8
TORSDOF 1
