REMARK  Name = =
REMARK  5 active torsions:
REMARK  status: ('A' for Active; 'I' for Inactive)
REMARK    1  A    between atoms: C_1  and  N_42
REMARK    2  A    between atoms: C_3  and  C_35
REMARK    3  A    between atoms: C_6  and  C_25
REMARK    4  A    between atoms: C_7  and  N_8
REMARK    5  A    between atoms: N_42  and  O_45
REMARK                            x       y       z     vdW  Elec       q    Type
REMARK                         _______ _______ _______ _____ _____    ______ ____
ROOT
ATOM      1  C   UNL     1       0.906 -11.029  24.570  0.00  0.00    +0.144 C 
ATOM      2  C   UNL     1       1.378 -12.140  23.684  0.00  0.00    +0.036 C 
ATOM      3  C   UNL     1       2.794 -12.006  23.274  0.00  0.00    +0.066 C 
ATOM      4  C   UNL     1       3.565 -11.830  24.549  0.00  0.00    +0.174 C 
ATOM      5  O   UNL     1       4.483 -12.611  24.809  0.00  0.00    -0.291 OA
ATOM      6  C   UNL     1       3.145 -10.703  25.409  0.00  0.00    +0.050 C 
ATOM      7  C   UNL     1       1.853 -10.331  25.408  0.00  0.00    +0.084 C 
ENDROOT
BRANCH   7   8
ATOM      8  N   UNL     1       1.501  -9.260  26.265  0.00  0.00    -0.232 N 
ATOM      9  N   UNL     1       0.820  -9.423  27.434  0.00  0.00    -0.165 NA
ATOM     10  C   UNL     1       0.588  -8.251  28.012  0.00  0.00    +0.103 A 
ATOM     11  C   UNL     1      -0.078  -7.787  29.220  0.00  0.00    +0.022 C 
ATOM     12  C   UNL     1      -0.132  -6.439  29.496  0.00  0.00    +0.040 C 
ATOM     13  C   UNL     1       0.469  -5.458  28.596  0.00  0.00    +0.196 C 
ATOM     14  O   UNL     1       0.454  -4.237  28.789  0.00  0.00    -0.287 OA
ATOM     15  C   UNL     1       1.132  -5.985  27.383  0.00  0.00    +0.042 C 
ATOM     16  C   UNL     1       1.141  -7.320  27.186  0.00  0.00    +0.040 A 
ATOM     17  C   UNL     1       1.721  -7.948  26.079  0.00  0.00    +0.084 A 
ATOM     18  C   UNL     1       2.323  -7.135  25.135  0.00  0.00    +0.019 C 
ATOM     19  C   UNL     1       2.315  -5.752  25.343  0.00  0.00    +0.002 C 
ATOM     20  C   UNL     1       1.734  -5.158  26.444  0.00  0.00    +0.003 C 
ATOM     21  C   UNL     1      -0.778  -5.982  30.644  0.00  0.00    +0.003 C 
ATOM     22  C   UNL     1      -1.370  -6.873  31.515  0.00  0.00    +0.000 C 
ATOM     23  C   UNL     1      -1.302  -8.226  31.216  0.00  0.00    +0.000 C 
ATOM     24  C   UNL     1      -0.662  -8.688  30.077  0.00  0.00    +0.002 C 
ENDBRANCH   7   8
BRANCH   6  25
ATOM     25  C   UNL     1       4.212 -10.053  26.116  0.00  0.00    +0.004 C 
ATOM     26  C   UNL     1       4.360 -10.264  27.466  0.00  0.00    +0.002 C 
ATOM     27  C   UNL     1       5.377  -9.670  28.172  0.00  0.00    +0.019 C 
ATOM     28  C   UNL     1       6.273  -8.845  27.532  0.00  0.00    +0.081 C 
ATOM     29  C   UNL     1       6.141  -8.618  26.166  0.00  0.00    +0.018 C 
ATOM     30  C   UNL     1       5.096  -9.236  25.471  0.00  0.00    +0.002 C 
ATOM     31  C   UNL     1       7.049  -7.790  25.541  0.00  0.00    +0.003 C 
ATOM     32  C   UNL     1       8.048  -7.232  26.326  0.00  0.00    +0.021 C 
ATOM     33  C   UNL     1       8.165  -7.465  27.666  0.00  0.00    +0.099 C 
ATOM     34  N   UNL     1       7.273  -8.270  28.246  0.00  0.00    -0.244 NA
ENDBRANCH   6  25
BRANCH   3  35
ATOM     35  C   UNL     1       3.311 -13.236  22.543  0.00  0.00    +0.037 C 
ATOM     36  C   UNL     1       4.025 -12.852  21.300  0.00  0.00    +0.032 C 
ATOM     37  C   UNL     1       3.264 -13.659  20.236  0.00  0.00    +0.115 C 
ATOM     38  O   UNL     1       1.958 -13.651  20.776  0.00  0.00    -0.359 OA
ATOM     39  C   UNL     1       2.218 -14.151  22.068  0.00  0.00    +0.116 C 
ATOM     40  C   UNL     1       2.924 -15.467  21.706  0.00  0.00    +0.032 C 
ATOM     41  C   UNL     1       3.646 -15.113  20.439  0.00  0.00    +0.032 C 
ENDBRANCH   3  35
BRANCH   1  42
ATOM     42  N   UNL     1       0.147 -10.080  23.734  0.00  0.00    -0.161 N 
ATOM     43  C   UNL     1       0.569  -9.608  22.489  0.00  0.00    +0.327 C 
ATOM     44  O   UNL     1      -0.148  -8.815  21.840  0.00  0.00    -0.263 OA
BRANCH  42  45
ATOM     45  O   UNL     1      -1.048  -9.654  24.243  0.00  0.00    -0.291 OA
ATOM     46  H   UNL     1      -1.198 -10.068  25.107  0.00  0.00    +0.242 HD
ENDBRANCH  42  45
ENDBRANCH   1  42
TORSDOF 5
