REMARK  Name = =
REMARK  0 active torsions:
REMARK  status: ('A' for Active; 'I' for Inactive)
REMARK                            x       y       z     vdW  Elec       q    Type
REMARK                         _______ _______ _______ _____ _____    ______ ____
ROOT
ATOM      1  C   UNL     1      52.307 156.256  28.309  0.00  0.00    -0.031 C 
ATOM      2  C   UNL     1      52.775 156.116  27.073  0.00  0.00    -0.031 C 
ATOM      3  C   UNL     1      52.450 154.821  26.392  0.00  0.00    +0.026 C 
ATOM      4  C   UNL     1      52.938 153.728  27.335  0.00  0.00    +0.005 C 
ATOM      5  C   UNL     1      52.100 153.782  28.580  0.00  0.00    +0.005 C 
ATOM      6  C   UNL     1      51.521 155.126  28.879  0.00  0.00    +0.026 C 
ENDROOT
TORSDOF 0
