REMARK  Name = =
REMARK  1 active torsions:
REMARK  status: ('A' for Active; 'I' for Inactive)
REMARK    1  A    between atoms: N_1  and  C_13
REMARK                            x       y       z     vdW  Elec       q    Type
REMARK                         _______ _______ _______ _____ _____    ______ ____
ROOT
ATOM      1  N   UNL     1      52.379 154.673  25.226  0.00  0.00    -0.316 N 
ATOM      2  C   UNL     1      52.236 153.834  26.356  0.00  0.00    +0.129 C 
ATOM      3  N   UNL     1      51.873 152.553  26.180  0.00  0.00    -0.229 NA
ATOM      4  C   UNL     1      51.699 151.686  27.182  0.00  0.00    +0.100 C 
ATOM      5  C   UNL     1      51.894 152.094  28.482  0.00  0.00    +0.021 C 
ATOM      6  C   UNL     1      52.268 153.407  28.690  0.00  0.00    +0.004 C 
ATOM      7  C   UNL     1      52.442 154.288  27.639  0.00  0.00    +0.034 C 
ATOM      8  H   UNL     1      52.171 154.305  24.337  0.00  0.00    +0.148 HD
ENDROOT
BRANCH   1  14
ATOM      9  C   UNL     1      52.956 156.571  23.941  0.00  0.00    -0.012 C 
ATOM     10  C   UNL     1      53.937 157.320  23.506  0.00  0.00    -0.029 C 
ATOM     11  C   UNL     1      55.014 157.706  24.471  0.00  0.00    +0.026 C 
ATOM     12  C   UNL     1      55.310 156.543  25.406  0.00  0.00    +0.007 C 
ATOM     13  C   UNL     1      54.041 156.201  26.166  0.00  0.00    +0.024 C 
ATOM     14  C   UNL     1      52.826 156.075  25.321  0.00  0.00    +0.092 C 
ENDBRANCH   1  14
TORSDOF 1
