REMARK  Name = =
REMARK  3 active torsions:
REMARK  status: ('A' for Active; 'I' for Inactive)
REMARK    1  A    between atoms: C_1  and  C_19
REMARK    2  A    between atoms: C_6  and  N_7
REMARK    3  A    between atoms: C_14  and  C_21
REMARK                            x       y       z     vdW  Elec       q    Type
REMARK                         _______ _______ _______ _____ _____    ______ ____
ROOT
ATOM      1  C   UNL     1      52.828 152.235  26.594  0.00  0.00    -0.009 C 
ATOM      2  C   UNL     1      51.664 152.358  27.270  0.00  0.00    -0.029 C 
ATOM      3  C   UNL     1      51.261 153.517  28.067  0.00  0.00    +0.026 C 
ATOM      4  C   UNL     1      52.425 154.234  28.704  0.00  0.00    +0.007 C 
ATOM      5  C   UNL     1      53.730 153.539  28.365  0.00  0.00    +0.024 C 
ATOM      6  C   UNL     1      53.751 153.366  26.804  0.00  0.00    +0.093 C 
ENDROOT
BRANCH   6   7
ATOM      7  N   UNL     1      53.226 154.645  26.357  0.00  0.00    -0.316 N 
ATOM      8  C   UNL     1      53.884 155.515  25.485  0.00  0.00    +0.129 C 
ATOM      9  N   UNL     1      53.301 156.707  25.201  0.00  0.00    -0.229 NA
ATOM     10  C   UNL     1      53.815 157.621  24.372  0.00  0.00    +0.100 C 
ATOM     11  C   UNL     1      55.017 157.395  23.736  0.00  0.00    +0.021 C 
ATOM     12  C   UNL     1      55.631 156.195  24.006  0.00  0.00    +0.004 C 
ATOM     13  C   UNL     1      55.087 155.248  24.870  0.00  0.00    +0.034 C 
ATOM     14  H   UNL     1      52.342 154.918  26.693  0.00  0.00    +0.148 HD
ENDBRANCH   6   7
BRANCH   1  20
ATOM     15  C   UNL     1      54.105 150.766  25.043  0.00  0.00    +0.053 C 
ATOM     16  C   UNL     1      54.359 149.470  24.514  0.00  0.00    +0.004 C 
ATOM     17  C   UNL     1      53.549 148.413  24.809  0.00  0.00    +0.000 C 
ATOM     18  C   UNL     1      52.479 148.633  25.631  0.00  0.00    -0.000 C 
ATOM     19  C   UNL     1      52.239 149.886  26.143  0.00  0.00    -0.000 C 
ATOM     20  C   UNL     1      53.059 151.005  25.862  0.00  0.00    +0.002 C 
BRANCH  15  22
ATOM     21  N   UNL     1      54.884 152.683  23.541  0.00  0.00    -0.325 N 
ATOM     22  C   UNL     1      55.012 151.774  24.579  0.00  0.00    +0.243 C 
ATOM     23  O   UNL     1      56.146 151.866  25.201  0.00  0.00    -0.270 OA
ATOM     24  H   UNL     1      54.061 152.701  23.001  0.00  0.00    +0.145 HD
ATOM     25  H   UNL     1      55.616 153.311  23.344  0.00  0.00    +0.145 HD
ENDBRANCH  15  22
ENDBRANCH   1  20
TORSDOF 3
