REMARK  Name = =
REMARK  1 active torsions:
REMARK  status: ('A' for Active; 'I' for Inactive)
REMARK    1  A    between atoms: C_9  and  O_11
REMARK                            x       y       z     vdW  Elec       q    Type
REMARK                         _______ _______ _______ _____ _____    ______ ____
ROOT
ATOM      1  C   UNL     1      48.689 158.808  30.526  0.00  0.00    +0.026 C 
ATOM      2  C   UNL     1      47.396 159.575  30.683  0.00  0.00    +0.005 C 
ATOM      3  C   UNL     1      47.320 159.935  32.159  0.00  0.00    +0.005 C 
ATOM      4  C   UNL     1      48.301 160.994  32.485  0.00  0.00    +0.026 C 
ATOM      5  C   UNL     1      49.588 160.764  31.804  0.00  0.00    -0.023 C 
ATOM      6  C   UNL     1      49.791 159.765  30.896  0.00  0.00    -0.026 C 
ATOM      7  C   UNL     1      51.005 159.537  30.243  0.00  0.00    -0.001 C 
ATOM      8  C   UNL     1      52.044 160.385  30.547  0.00  0.00    +0.036 C 
ATOM      9  C   UNL     1      51.904 161.419  31.461  0.00  0.00    +0.133 C 
ATOM     10  C   UNL     1      50.687 161.595  32.072  0.00  0.00    +0.032 C 
ENDROOT
BRANCH   9  11
ATOM     11  O   UNL     1      52.968 162.269  31.758  0.00  0.00    -0.506 OA
ATOM     12  H   UNL     1      53.797 162.146  31.339  0.00  0.00    +0.292 HD
ENDBRANCH   9  11
TORSDOF 1
