REMARK  Name = =
REMARK  6 active torsions:
REMARK  status: ('A' for Active; 'I' for Inactive)
REMARK    1  A    between atoms: O_1  and  C_2
REMARK    2  A    between atoms: O_1  and  C_13
REMARK    3  A    between atoms: C_10  and  O_12
REMARK    4  A    between atoms: C_15  and  O_22
REMARK    5  A    between atoms: C_17  and  O_21
REMARK    6  A    between atoms: C_18  and  C_19
REMARK                            x       y       z     vdW  Elec       q    Type
REMARK                         _______ _______ _______ _____ _____    ______ ____
ROOT
ATOM      1  O   UNL     1      49.891 159.538  30.481  0.00  0.00    -0.474 OA
ENDROOT
BRANCH   1   2
ATOM      2  C   UNL     1      49.986 160.087  31.746  0.00  0.00    +0.188 C 
ATOM      3  C   UNL     1      48.635 160.550  32.243  0.00  0.00    +0.049 C 
ATOM      4  C   UNL     1      48.757 161.390  33.498  0.00  0.00    +0.009 C 
ATOM      5  C   UNL     1      49.491 162.679  33.238  0.00  0.00    +0.026 C 
ATOM      6  C   UNL     1      50.732 162.387  32.473  0.00  0.00    -0.020 C 
ATOM      7  C   UNL     1      50.971 161.230  31.797  0.00  0.00    +0.013 C 
ATOM      8  C   UNL     1      52.165 161.087  31.125  0.00  0.00    +0.002 C 
ATOM      9  C   UNL     1      53.115 162.095  31.128  0.00  0.00    +0.036 C 
ATOM     10  C   UNL     1      52.892 163.280  31.809  0.00  0.00    +0.133 C 
ATOM     11  C   UNL     1      51.692 163.407  32.476  0.00  0.00    +0.032 C 
BRANCH  10  12
ATOM     12  O   UNL     1      53.828 164.306  31.829  0.00  0.00    -0.506 OA
ATOM     13  H   UNL     1      54.640 164.208  31.372  0.00  0.00    +0.292 HD
ENDBRANCH  10  12
ENDBRANCH   1   2
BRANCH   1  14
ATOM     14  C   UNL     1      50.294 158.308  30.031  0.00  0.00    +0.148 C 
ATOM     15  C   UNL     1      51.627 158.000  29.868  0.00  0.00    +0.074 C 
ATOM     16  C   UNL     1      51.987 156.742  29.410  0.00  0.00    +0.140 C 
ATOM     17  C   UNL     1      51.052 155.778  29.107  0.00  0.00    +0.073 C 
ATOM     18  C   UNL     1      49.696 156.076  29.266  0.00  0.00    +0.143 C 
ATOM     19  C   UNL     1      49.344 157.317  29.719  0.00  0.00    +0.110 C 
BRANCH  19  20
ATOM     20  C   UNL     1      47.951 157.654  29.893  0.00  0.00    +0.240 C 
ATOM     21  O   UNL     1      47.598 158.789  30.298  0.00  0.00    -0.283 OA
ENDBRANCH  19  20
BRANCH  18  22
ATOM     22  O   UNL     1      48.793 155.077  28.949  0.00  0.00    -0.505 OA
ATOM     23  H   UNL     1      49.101 154.247  28.643  0.00  0.00    +0.292 HD
ENDBRANCH  18  22
BRANCH  16  24
ATOM     24  O   UNL     1      53.344 156.485  29.265  0.00  0.00    -0.505 OA
ATOM     25  H   UNL     1      53.971 157.149  29.474  0.00  0.00    +0.292 HD
ENDBRANCH  16  24
ENDBRANCH   1  14
TORSDOF 6
