REMARK  Name = =
REMARK  7 active torsions:
REMARK  status: ('A' for Active; 'I' for Inactive)
REMARK    1  A    between atoms: C_1  and  C_11
REMARK    2  A    between atoms: C_1  and  O_17
REMARK    3  A    between atoms: C_9  and  O_16
REMARK    4  A    between atoms: O_17  and  C_18
REMARK    5  A    between atoms: C_20  and  O_27
REMARK    6  A    between atoms: C_22  and  O_26
REMARK    7  A    between atoms: C_23  and  C_24
REMARK                            x       y       z     vdW  Elec       q    Type
REMARK                         _______ _______ _______ _____ _____    ______ ____
ROOT
ATOM      1  C   UNL     1      51.005 161.272  31.338  0.00  0.00    +0.151 C 
ATOM      2  C   UNL     1      51.301 160.314  32.463  0.00  0.00    +0.045 C 
ATOM      3  C   UNL     1      50.174 159.632  33.123  0.00  0.00    +0.009 C 
ATOM      4  C   UNL     1      48.820 160.226  32.939  0.00  0.00    +0.026 C 
ATOM      5  C   UNL     1      48.828 161.643  32.507  0.00  0.00    -0.020 C 
ATOM      6  C   UNL     1      49.893 162.124  31.727  0.00  0.00    +0.010 C 
ATOM      7  C   UNL     1      49.817 163.442  31.368  0.00  0.00    +0.002 C 
ATOM      8  C   UNL     1      48.739 164.248  31.760  0.00  0.00    +0.036 C 
ATOM      9  C   UNL     1      47.723 163.748  32.517  0.00  0.00    +0.133 C 
ATOM     10  C   UNL     1      47.773 162.438  32.890  0.00  0.00    +0.032 C 
ENDROOT
BRANCH   1  11
ATOM     11  C   UNL     1      52.258 162.072  31.053  0.00  0.00    +0.041 C 
ATOM     12  C   UNL     1      52.774 162.958  32.090  0.00  0.00    +0.004 C 
ATOM     13  C   UNL     1      54.219 163.225  31.624  0.00  0.00    +0.000 C 
ATOM     14  C   UNL     1      54.543 162.131  30.629  0.00  0.00    +0.000 C 
ATOM     15  C   UNL     1      53.395 161.125  30.709  0.00  0.00    +0.004 C 
ENDBRANCH   1  11
BRANCH   9  16
ATOM     16  O   UNL     1      46.632 164.513  32.930  0.00  0.00    -0.506 OA
ATOM     17  H   UNL     1      46.574 165.416  32.687  0.00  0.00    +0.292 HD
ENDBRANCH   9  16
BRANCH   1  18
ATOM     18  O   UNL     1      50.828 160.500  30.173  0.00  0.00    -0.478 OA
BRANCH  18  19
ATOM     19  C   UNL     1      50.825 159.186  29.944  0.00  0.00    +0.148 C 
ATOM     20  C   UNL     1      52.011 158.519  29.762  0.00  0.00    +0.074 C 
ATOM     21  C   UNL     1      52.070 157.162  29.523  0.00  0.00    +0.140 C 
ATOM     22  C   UNL     1      50.932 156.421  29.456  0.00  0.00    +0.073 C 
ATOM     23  C   UNL     1      49.683 157.059  29.634  0.00  0.00    +0.143 C 
ATOM     24  C   UNL     1      49.653 158.412  29.871  0.00  0.00    +0.110 C 
BRANCH  24  25
ATOM     25  C   UNL     1      48.356 159.062  30.019  0.00  0.00    +0.240 C 
ATOM     26  O   UNL     1      47.257 158.499  30.006  0.00  0.00    -0.283 OA
ENDBRANCH  24  25
BRANCH  23  27
ATOM     27  O   UNL     1      48.603 156.217  29.547  0.00  0.00    -0.505 OA
ATOM     28  H   UNL     1      48.733 155.304  29.381  0.00  0.00    +0.292 HD
ENDBRANCH  23  27
BRANCH  21  29
ATOM     29  O   UNL     1      53.295 156.495  29.341  0.00  0.00    -0.505 OA
ATOM     30  H   UNL     1      54.100 156.974  29.381  0.00  0.00    +0.292 HD
ENDBRANCH  21  29
ENDBRANCH  18  19
ENDBRANCH   1  18
TORSDOF 7
