REMARK  Name = =
REMARK  8 active torsions:
REMARK  status: ('A' for Active; 'I' for Inactive)
REMARK    1  A    between atoms: C_1  and  C_11
REMARK    2  A    between atoms: C_1  and  O_19
REMARK    3  A    between atoms: C_9  and  O_18
REMARK    4  A    between atoms: C_11  and  S_16
REMARK    5  A    between atoms: O_19  and  C_20
REMARK    6  A    between atoms: C_22  and  O_29
REMARK    7  A    between atoms: C_24  and  O_28
REMARK    8  A    between atoms: C_25  and  C_26
REMARK                            x       y       z     vdW  Elec       q    Type
REMARK                         _______ _______ _______ _____ _____    ______ ____
ROOT
ATOM      1  C   UNL     1      49.965 160.425  31.162  0.00  0.00    +0.162 C 
ATOM      2  C   UNL     1      48.991 161.344  30.426  0.00  0.00    +0.046 C 
ATOM      3  C   UNL     1      49.267 161.320  28.935  0.00  0.00    +0.009 C 
ATOM      4  C   UNL     1      50.692 161.048  28.569  0.00  0.00    +0.026 C 
ATOM      5  C   UNL     1      51.604 161.456  29.707  0.00  0.00    -0.020 C 
ATOM      6  C   UNL     1      51.255 161.202  31.009  0.00  0.00    +0.011 C 
ATOM      7  C   UNL     1      52.044 161.616  32.029  0.00  0.00    +0.002 C 
ATOM      8  C   UNL     1      53.221 162.302  31.728  0.00  0.00    +0.036 C 
ATOM      9  C   UNL     1      53.604 162.573  30.432  0.00  0.00    +0.133 C 
ATOM     10  C   UNL     1      52.779 162.141  29.416  0.00  0.00    +0.032 C 
ENDROOT
BRANCH   1  11
ATOM     11  C   UNL     1      49.582 160.272  32.615  0.00  0.00    +0.102 C 
ATOM     12  C   UNL     1      49.977 161.483  33.436  0.00  0.00    +0.016 C 
ATOM     13  C   UNL     1      48.691 162.214  33.793  0.00  0.00    +0.001 C 
ATOM     14  C   UNL     1      47.782 161.011  34.015  0.00  0.00    +0.001 C 
ATOM     15  C   UNL     1      48.029 160.274  32.720  0.00  0.00    +0.016 C 
BRANCH  11  16
ATOM     16  S   UNL     1      50.057 158.812  33.444  0.00  0.00    +0.020 S 
ATOM     17  O   UNL     1      49.034 158.152  34.299  0.00  0.00    -0.260 OA
ATOM     18  H   UNL     1      51.118 159.119  34.238  0.00  0.00    +0.139 HD
ENDBRANCH  11  16
ENDBRANCH   1  11
BRANCH   9  19
ATOM     19  O   UNL     1      54.784 163.260  30.131  0.00  0.00    -0.506 OA
ATOM     20  H   UNL     1      55.345 163.553  30.822  0.00  0.00    +0.292 HD
ENDBRANCH   9  19
BRANCH   1  21
ATOM     21  O   UNL     1      50.072 159.281  30.458  0.00  0.00    -0.477 OA
BRANCH  21  22
ATOM     22  C   UNL     1      50.868 158.426  29.864  0.00  0.00    +0.148 C 
ATOM     23  C   UNL     1      52.185 158.665  29.583  0.00  0.00    +0.074 C 
ATOM     24  C   UNL     1      53.016 157.730  28.953  0.00  0.00    +0.140 C 
ATOM     25  C   UNL     1      52.481 156.524  28.603  0.00  0.00    +0.073 C 
ATOM     26  C   UNL     1      51.140 156.228  28.866  0.00  0.00    +0.143 C 
ATOM     27  C   UNL     1      50.364 157.163  29.482  0.00  0.00    +0.110 C 
BRANCH  27  28
ATOM     28  C   UNL     1      48.959 156.884  29.795  0.00  0.00    +0.240 C 
ATOM     29  O   UNL     1      48.290 156.046  29.152  0.00  0.00    -0.283 OA
ENDBRANCH  27  28
BRANCH  26  30
ATOM     30  O   UNL     1      50.715 155.004  28.476  0.00  0.00    -0.505 OA
ATOM     31  H   UNL     1      51.309 154.413  28.057  0.00  0.00    +0.292 HD
ENDBRANCH  26  30
BRANCH  24  32
ATOM     32  O   UNL     1      54.351 158.032  28.694  0.00  0.00    -0.505 OA
ATOM     33  H   UNL     1      54.699 158.866  28.942  0.00  0.00    +0.292 HD
ENDBRANCH  24  32
ENDBRANCH  21  22
ENDBRANCH   1  21
TORSDOF 8
