REMARK  Name = =
REMARK  3 active torsions:
REMARK  status: ('A' for Active; 'I' for Inactive)
REMARK    1  A    between atoms: C_1  and  C_8
REMARK    2  A    between atoms: C_1  and  C_23
REMARK    3  A    between atoms: C_23  and  C_37
REMARK                            x       y       z     vdW  Elec       q    Type
REMARK                         _______ _______ _______ _____ _____    ______ ____
ROOT
ATOM      1  C   UNL     1     -25.620 -46.207  26.233  0.00  0.00    +0.132 C 
ATOM      2  N   UNL     1     -25.652 -46.027  27.676  0.00  0.00    -0.267 N 
ATOM      3  C   UNL     1     -26.109 -44.683  27.861  0.00  0.00    +0.402 C 
ATOM      4  O   UNL     1     -26.133 -43.997  28.918  0.00  0.00    -0.226 OA
ATOM      5  O   UNL     1     -26.563 -44.182  26.626  0.00  0.00    -0.433 OA
ATOM      6  C   UNL     1     -26.840 -45.353  25.845  0.00  0.00    +0.231 C 
ATOM      7  H   UNL     1     -25.413 -46.683  28.370  0.00  0.00    +0.153 HD
ENDROOT
BRANCH   1   9
ATOM      8  O   UNL     1     -24.180 -45.798  24.341  0.00  0.00    -0.349 OA
ATOM      9  C   UNL     1     -24.435 -45.545  25.696  0.00  0.00    +0.140 C 
ATOM     10  C   UNL     1     -23.139 -45.740  26.398  0.00  0.00    +0.061 C 
ATOM     11  C   UNL     1     -22.233 -44.647  25.943  0.00  0.00    +0.021 C 
ATOM     12  C   UNL     1     -22.418 -44.195  24.716  0.00  0.00    +0.045 C 
ATOM     13  C   UNL     1     -23.468 -44.732  23.817  0.00  0.00    +0.172 C 
ATOM     14  C   UNL     1     -21.560 -43.107  24.184  0.00  0.00    +0.194 C 
ATOM     15  O   UNL     1     -21.737 -42.674  23.006  0.00  0.00    -0.287 OA
ATOM     16  C   UNL     1     -20.517 -42.550  25.032  0.00  0.00    +0.042 C 
ATOM     17  C   UNL     1     -20.347 -43.042  26.309  0.00  0.00    +0.042 C 
ATOM     18  C   UNL     1     -19.363 -42.510  27.098  0.00  0.00    +0.003 C 
ATOM     19  C   UNL     1     -18.535 -41.503  26.667  0.00  0.00    +0.000 C 
ATOM     20  C   UNL     1     -18.733 -41.035  25.382  0.00  0.00    +0.000 C 
ATOM     21  C   UNL     1     -19.701 -41.525  24.542  0.00  0.00    +0.003 C 
ATOM     22  C   UNL     1     -21.196 -44.107  26.817  0.00  0.00    +0.192 C 
ATOM     23  O   UNL     1     -21.088 -44.592  27.964  0.00  0.00    -0.287 OA
ENDBRANCH   1   9
BRANCH   1  24
ATOM     24  C   UNL     1     -25.932 -47.586  25.870  0.00  0.00    +0.083 C 
ATOM     25  C   UNL     1     -24.742 -48.505  25.693  0.00  0.00    +0.035 C 
ATOM     26  C   UNL     1     -25.284 -49.883  25.786  0.00  0.00    -0.026 C 
ATOM     27  C   UNL     1     -26.504 -50.149  25.249  0.00  0.00    -0.026 C 
ATOM     28  C   UNL     1     -26.986 -51.442  25.351  0.00  0.00    -0.005 C 
ATOM     29  C   UNL     1     -26.234 -52.430  25.986  0.00  0.00    -0.000 C 
ATOM     30  C   UNL     1     -24.992 -52.159  26.533  0.00  0.00    -0.000 C 
ATOM     31  C   UNL     1     -24.533 -50.845  26.414  0.00  0.00    -0.005 C 
ATOM     32  C   UNL     1     -24.263 -53.144  27.156  0.00  0.00    -0.000 C 
ATOM     33  C   UNL     1     -24.751 -54.429  27.252  0.00  0.00    -0.000 C 
ATOM     34  C   UNL     1     -25.992 -54.733  26.715  0.00  0.00    -0.000 C 
ATOM     35  C   UNL     1     -26.706 -53.729  26.095  0.00  0.00    -0.000 C 
ATOM     36  C   UNL     1     -27.358 -49.157  24.562  0.00  0.00    +0.027 C 
ATOM     37  C   UNL     1     -26.821 -47.754  24.671  0.00  0.00    +0.014 C 
BRANCH  24  38
ATOM     38  C   UNL     1     -26.697 -48.181  27.037  0.00  0.00    +0.209 C 
ATOM     39  O   UNL     1     -27.754 -47.761  27.411  0.00  0.00    -0.288 OA
ENDBRANCH  24  38
ENDBRANCH   1  24
TORSDOF 3
