REMARK  Name = =
REMARK  2 active torsions:
REMARK  status: ('A' for Active; 'I' for Inactive)
REMARK    1  A    between atoms: C_1  and  N_3
REMARK    2  A    between atoms: C_1  and  N_4
REMARK                            x       y       z     vdW  Elec       q    Type
REMARK                         _______ _______ _______ _____ _____    ______ ____
ROOT
ATOM      1  C   UNL     1      51.667 156.287  29.166  0.00  0.00    +0.125 C 
ATOM      2  S   UNL     1      52.382 157.770  29.166  0.00  0.00    -0.019 S 
ENDROOT
BRANCH   1   3
ATOM      3  N   UNL     1      52.375 155.125  28.751  0.00  0.00    -0.341 N 
ATOM      4  H   UNL     1      53.312 155.198  28.457  0.00  0.00    +0.144 HD
ATOM      5  H   UNL     1      51.928 154.248  28.758  0.00  0.00    +0.144 HD
ENDBRANCH   1   3
BRANCH   1   6
ATOM      6  N   UNL     1      50.322 156.108  29.576  0.00  0.00    -0.341 N 
ATOM      7  H   UNL     1      49.790 156.882  29.872  0.00  0.00    +0.144 HD
ATOM      8  H   UNL     1      49.919 155.210  29.565  0.00  0.00    +0.144 HD
ENDBRANCH   1   6
TORSDOF 2
