REMARK  Name = =
REMARK  2 active torsions:
REMARK  status: ('A' for Active; 'I' for Inactive)
REMARK    1  A    between atoms: C_1  and  N_3
REMARK    2  A    between atoms: C_1  and  N_4
REMARK                            x       y       z     vdW  Elec       q    Type
REMARK                         _______ _______ _______ _____ _____    ______ ____
ROOT
ATOM      1  C   UNL     1      51.674 156.278  29.164  0.00  0.00    +0.144 C 
ATOM      2  S   UNL     1      52.218 154.965  28.382  0.00  0.00    -0.018 S 
ENDROOT
BRANCH   1   3
ATOM      3  N   UNL     1      52.431 157.464  29.151  0.00  0.00    -0.340 N 
ATOM      4  H   UNL     1      52.103 158.262  29.625  0.00  0.00    +0.144 HD
ATOM      5  H   UNL     1      53.288 157.495  28.668  0.00  0.00    +0.144 HD
ENDBRANCH   1   3
BRANCH   1   6
ATOM      6  N   UNL     1      50.441 156.160  29.831  0.00  0.00    -0.227 N 
ATOM      7  N   UNL     1      49.846 157.353  30.272  0.00  0.00    -0.018 NA
ATOM      8  H   UNL     1      50.016 155.285  29.981  0.00  0.00    +0.171 HD
ENDBRANCH   1   6
TORSDOF 2
