REMARK  Name = =
REMARK  5 active torsions:
REMARK  status: ('A' for Active; 'I' for Inactive)
REMARK    1  A    between atoms: C_1  and  C_3
REMARK    2  A    between atoms: C_1  and  N_10
REMARK    3  A    between atoms: N_10  and  N_11
REMARK    4  A    between atoms: N_11  and  C_12
REMARK    5  A    between atoms: C_12  and  N_14
REMARK                            x       y       z     vdW  Elec       q    Type
REMARK                         _______ _______ _______ _____ _____    ______ ____
ROOT
ATOM      1  C   UNL     1      52.462 157.303  28.903  0.00  0.00    +0.283 C 
ATOM      2  O   UNL     1      53.285 157.954  28.210  0.00  0.00    -0.267 OA
ENDROOT
BRANCH   1   3
ATOM      3  C   UNL     1      51.431 158.069  29.626  0.00  0.00    +0.057 C 
ATOM      4  C   UNL     1      51.633 159.382  29.995  0.00  0.00    +0.007 C 
ATOM      5  C   UNL     1      50.674 160.108  30.672  0.00  0.00    +0.030 C 
ATOM      6  C   UNL     1      49.464 159.527  31.005  0.00  0.00    +0.140 C 
ATOM      7  C   UNL     1      49.243 158.205  30.642  0.00  0.00    +0.030 C 
ATOM      8  C   UNL     1      50.220 157.501  29.964  0.00  0.00    +0.007 C 
ATOM      9  F   UNL     1      48.493 160.202  31.670  0.00  0.00    -0.204 F 
ENDBRANCH   1   3
BRANCH   1  10
ATOM     10  N   UNL     1      52.543 155.906  28.970  0.00  0.00    -0.108 NA
BRANCH  10  11
ATOM     11  N   UNL     1      52.661 155.356  27.693  0.00  0.00    -0.224 N 
ATOM     12  H   UNL     1      52.629 155.934  26.897  0.00  0.00    +0.174 HD
BRANCH  11  13
ATOM     13  C   UNL     1      52.827 153.965  27.557  0.00  0.00    +0.146 C 
ATOM     14  S   UNL     1      52.657 153.260  26.105  0.00  0.00    -0.018 S 
BRANCH  13  15
ATOM     15  N   UNL     1      53.143 153.182  28.688  0.00  0.00    -0.339 N 
ATOM     16  H   UNL     1      53.246 153.609  29.569  0.00  0.00    +0.144 HD
ATOM     17  H   UNL     1      53.260 152.209  28.596  0.00  0.00    +0.144 HD
ENDBRANCH  13  15
ENDBRANCH  11  13
ENDBRANCH  10  11
ENDBRANCH   1  10
TORSDOF 5
