REMARK  Name = =
REMARK  3 active torsions:
REMARK  status: ('A' for Active; 'I' for Inactive)
REMARK    1  A    between atoms: P_1  and  N_3
REMARK    2  A    between atoms: P_1  and  N_4
REMARK    3  A    between atoms: P_1  and  O_5
REMARK                            x       y       z     vdW  Elec       q    Type
REMARK                         _______ _______ _______ _____ _____    ______ ____
ROOT
ATOM      1  P   UNL     1     -11.285 -43.763  30.802  0.00  0.00    +0.335 P 
ATOM      2  O   UNL     1     -10.681 -44.075  32.137  0.00  0.00    -0.255 OA
ENDROOT
BRANCH   1   3
ATOM      3  N   UNL     1     -12.777 -42.912  31.029  0.00  0.00    -0.247 NA
ATOM      4  H   UNL     1     -13.411 -43.481  31.589  0.00  0.00    +0.129 HD
ATOM      5  H   UNL     1     -13.202 -42.723  30.121  0.00  0.00    +0.129 HD
ENDBRANCH   1   3
BRANCH   1   6
ATOM      6  N   UNL     1     -11.686 -45.291  30.019  0.00  0.00    -0.247 NA
ATOM      7  H   UNL     1     -12.350 -45.806  30.598  0.00  0.00    +0.129 HD
ATOM      8  H   UNL     1     -10.838 -45.845  29.900  0.00  0.00    +0.129 HD
ENDBRANCH   1   6
BRANCH   1   9
ATOM      9  O   UNL     1     -10.193 -42.878  29.885  0.00  0.00    -0.322 OA
ATOM     10  H   UNL     1      -9.991 -42.045  30.338  0.00  0.00    +0.220 HD
ENDBRANCH   1   9
TORSDOF 3
