REMARK  Name = =
REMARK  7 active torsions:
REMARK  status: ('A' for Active; 'I' for Inactive)
REMARK    1  A    between atoms: C_1  and  N_19
REMARK    2  A    between atoms: C_1  and  S_24
REMARK    3  A    between atoms: N_19  and  P_20
REMARK    4  A    between atoms: P_20  and  N_22
REMARK    5  A    between atoms: P_20  and  O_23
REMARK    6  A    between atoms: S_24  and  C_25
REMARK    7  A    between atoms: C_25  and  O_27
REMARK                            x       y       z     vdW  Elec       q    Type
REMARK                         _______ _______ _______ _____ _____    ______ ____
ROOT
ATOM      1  C   UNL     1     -12.760 -43.300  31.187  0.00  0.00    +0.097 C 
ATOM      2  C   UNL     1     -14.089 -42.909  30.577  0.00  0.00    +0.026 C 
ATOM      3  C   UNL     1     -14.479 -43.690  29.371  0.00  0.00    +0.002 C 
ATOM      4  C   UNL     1     -15.697 -43.044  28.764  0.00  0.00    +0.000 C 
ATOM      5  C   UNL     1     -15.291 -42.431  27.459  0.00  0.00    +0.000 C 
ATOM      6  C   UNL     1     -13.850 -42.762  27.227  0.00  0.00    +0.000 C 
ATOM      7  C   UNL     1     -13.448 -43.746  28.295  0.00  0.00    +0.000 C 
ATOM      8  C   UNL     1     -12.115 -43.468  28.894  0.00  0.00    +0.003 C 
ATOM      9  C   UNL     1     -10.951 -43.695  28.024  0.00  0.00    +0.004 C 
ATOM     10  C   UNL     1     -10.441 -45.115  28.098  0.00  0.00    +0.022 C 
ATOM     11  C   UNL     1      -9.988 -45.295  29.524  0.00  0.00    -0.042 C 
ATOM     12  C   UNL     1      -9.072 -46.213  29.747  0.00  0.00    +0.029 C 
ATOM     13  C   UNL     1      -8.588 -46.439  31.099  0.00  0.00    +0.173 C 
ATOM     14  O   UNL     1      -7.975 -47.445  31.470  0.00  0.00    -0.291 OA
ATOM     15  C   UNL     1      -8.886 -45.335  32.071  0.00  0.00    +0.069 C 
ATOM     16  C   UNL     1     -10.382 -45.066  31.896  0.00  0.00    +0.012 C 
ATOM     17  C   UNL     1     -10.595 -44.437  30.568  0.00  0.00    +0.021 C 
ATOM     18  C   UNL     1     -12.049 -44.244  30.217  0.00  0.00    +0.027 C 
ENDROOT
BRANCH   1  19
ATOM     19  N   UNL     1     -12.890 -43.827  32.504  0.00  0.00    -0.217 NA
ATOM     20  H   UNL     1     -12.866 -43.046  33.160  0.00  0.00    +0.134 HD
BRANCH  19  21
ATOM     21  P   UNL     1     -14.328 -44.724  32.799  0.00  0.00    +0.339 P 
ATOM     22  O   UNL     1     -15.083 -44.949  31.487  0.00  0.00    -0.255 OA
BRANCH  21  23
ATOM     23  N   UNL     1     -15.409 -43.991  33.932  0.00  0.00    -0.247 NA
ATOM     24  H   UNL     1     -14.922 -43.833  34.814  0.00  0.00    +0.129 HD
ATOM     25  H   UNL     1     -16.206 -44.608  34.089  0.00  0.00    +0.129 HD
ENDBRANCH  21  23
BRANCH  21  26
ATOM     26  O   UNL     1     -13.856 -46.267  33.371  0.00  0.00    -0.322 OA
ATOM     27  H   UNL     1     -13.372 -46.168  34.206  0.00  0.00    +0.220 HD
ENDBRANCH  21  26
ENDBRANCH  19  21
ENDBRANCH   1  19
BRANCH   1  28
ATOM     28  S   UNL     1     -11.730 -41.808  31.230  0.00  0.00    -0.057 S 
BRANCH  28  29
ATOM     29  C   UNL     1     -11.116 -41.438  32.839  0.00  0.00    +0.200 C 
ATOM     30  S   UNL     1     -11.913 -41.993  34.144  0.00  0.00    -0.004 S 
BRANCH  29  31
ATOM     31  O   UNL     1      -9.966 -40.683  32.979  0.00  0.00    -0.496 OA
ATOM     32  H   UNL     1      -9.516 -40.369  32.219  0.00  0.00    +0.293 HD
ENDBRANCH  29  31
ENDBRANCH  28  29
ENDBRANCH   1  28
TORSDOF 7
