REMARK  Name = =
REMARK  8 active torsions:
REMARK  status: ('A' for Active; 'I' for Inactive)
REMARK    1  A    between atoms: C_1  and  N_19
REMARK    2  A    between atoms: C_1  and  S_26
REMARK    3  A    between atoms: N_19  and  S_20
REMARK    4  A    between atoms: N_19  and  P_22
REMARK    5  A    between atoms: P_22  and  N_24
REMARK    6  A    between atoms: P_22  and  O_25
REMARK    7  A    between atoms: S_26  and  C_27
REMARK    8  A    between atoms: C_27  and  O_29
REMARK                            x       y       z     vdW  Elec       q    Type
REMARK                         _______ _______ _______ _____ _____    ______ ____
ROOT
ATOM      1  C   UNL     1     -10.154 -42.565  30.696  0.00  0.00    +0.112 C 
ATOM      2  C   UNL     1      -8.842 -42.158  31.337  0.00  0.00    +0.027 C 
ATOM      3  C   UNL     1      -7.886 -43.246  31.630  0.00  0.00    +0.002 C 
ATOM      4  C   UNL     1      -7.099 -43.713  30.429  0.00  0.00    +0.000 C 
ATOM      5  C   UNL     1      -6.571 -45.066  30.853  0.00  0.00    +0.000 C 
ATOM      6  C   UNL     1      -7.336 -45.475  32.081  0.00  0.00    +0.000 C 
ATOM      7  C   UNL     1      -8.486 -44.524  32.133  0.00  0.00    +0.000 C 
ATOM      8  C   UNL     1      -9.574 -44.876  31.106  0.00  0.00    +0.003 C 
ATOM      9  C   UNL     1      -9.918 -46.302  31.284  0.00  0.00    +0.004 C 
ATOM     10  C   UNL     1     -11.218 -46.694  30.618  0.00  0.00    +0.022 C 
ATOM     11  C   UNL     1     -12.237 -45.711  31.124  0.00  0.00    -0.042 C 
ATOM     12  C   UNL     1     -13.269 -46.190  31.792  0.00  0.00    +0.029 C 
ATOM     13  C   UNL     1     -14.243 -45.225  32.268  0.00  0.00    +0.173 C 
ATOM     14  O   UNL     1     -14.889 -45.338  33.311  0.00  0.00    -0.291 OA
ATOM     15  C   UNL     1     -14.442 -44.034  31.405  0.00  0.00    +0.069 C 
ATOM     16  C   UNL     1     -13.090 -43.394  31.210  0.00  0.00    +0.012 C 
ATOM     17  C   UNL     1     -11.985 -44.288  30.835  0.00  0.00    +0.021 C 
ATOM     18  C   UNL     1     -10.642 -43.874  31.309  0.00  0.00    +0.028 C 
ENDROOT
BRANCH   1  19
ATOM     19  N   UNL     1      -9.942 -42.689  29.305  0.00  0.00    -0.122 NA
BRANCH  19  20
ATOM     20  S   UNL     1     -11.349 -43.280  28.457  0.00  0.00    +0.092 S 
ATOM     21  O   UNL     1     -12.254 -42.190  27.966  0.00  0.00    -0.243 OA
ATOM     22  H   UNL     1     -12.056 -44.079  29.301  0.00  0.00    +0.156 HD
ENDBRANCH  19  20
BRANCH  19  23
ATOM     23  P   UNL     1      -9.223 -41.451  28.396  0.00  0.00    +0.353 P 
ATOM     24  O   UNL     1     -10.127 -40.317  27.987  0.00  0.00    -0.254 OA
BRANCH  23  25
ATOM     25  N   UNL     1      -8.705 -42.163  26.837  0.00  0.00    -0.246 NA
ATOM     26  H   UNL     1      -8.081 -42.950  27.013  0.00  0.00    +0.129 HD
ATOM     27  H   UNL     1      -8.215 -41.457  26.287  0.00  0.00    +0.129 HD
ENDBRANCH  23  25
BRANCH  23  28
ATOM     28  O   UNL     1      -7.838 -40.810  29.099  0.00  0.00    -0.321 OA
ATOM     29  H   UNL     1      -8.065 -40.409  29.953  0.00  0.00    +0.220 HD
ENDBRANCH  23  28
ENDBRANCH  19  23
ENDBRANCH   1  19
BRANCH   1  30
ATOM     30  S   UNL     1     -11.298 -41.249  31.090  0.00  0.00    -0.056 S 
BRANCH  30  31
ATOM     31  C   UNL     1     -12.082 -41.216  32.621  0.00  0.00    +0.200 C 
ATOM     32  S   UNL     1     -11.310 -41.400  34.036  0.00  0.00    -0.004 S 
BRANCH  31  33
ATOM     33  O   UNL     1     -13.466 -41.030  32.700  0.00  0.00    -0.496 OA
ATOM     34  H   UNL     1     -13.969 -40.918  31.917  0.00  0.00    +0.293 HD
ENDBRANCH  31  33
ENDBRANCH  30  31
ENDBRANCH   1  30
TORSDOF 8
