REMARK  Name = =
REMARK  9 active torsions:
REMARK  status: ('A' for Active; 'I' for Inactive)
REMARK    1  A    between atoms: C_1  and  N_19
REMARK    2  A    between atoms: C_1  and  S_31
REMARK    3  A    between atoms: N_19  and  S_20
REMARK    4  A    between atoms: N_19  and  P_27
REMARK    5  A    between atoms: S_20  and  C_22
REMARK    6  A    between atoms: P_27  and  N_29
REMARK    7  A    between atoms: P_27  and  O_30
REMARK    8  A    between atoms: S_31  and  C_32
REMARK    9  A    between atoms: C_32  and  O_34
REMARK                            x       y       z     vdW  Elec       q    Type
REMARK                         _______ _______ _______ _____ _____    ______ ____
ROOT
ATOM      1  C   UNL     1     -12.216 -44.471  29.321  0.00  0.00    +0.113 C 
ATOM      2  C   UNL     1     -12.721 -44.846  27.927  0.00  0.00    +0.027 C 
ATOM      3  C   UNL     1     -13.214 -43.729  27.119  0.00  0.00    +0.002 C 
ATOM      4  C   UNL     1     -14.652 -43.380  27.194  0.00  0.00    +0.000 C 
ATOM      5  C   UNL     1     -14.735 -42.120  26.362  0.00  0.00    +0.000 C 
ATOM      6  C   UNL     1     -13.461 -41.410  26.793  0.00  0.00    +0.000 C 
ATOM      7  C   UNL     1     -12.464 -42.504  27.068  0.00  0.00    +0.000 C 
ATOM      8  C   UNL     1     -11.684 -42.220  28.274  0.00  0.00    +0.003 C 
ATOM      9  C   UNL     1     -10.364 -41.692  27.777  0.00  0.00    +0.004 C 
ATOM     10  C   UNL     1      -9.355 -42.845  27.996  0.00  0.00    +0.022 C 
ATOM     11  C   UNL     1      -9.169 -42.805  29.457  0.00  0.00    -0.042 C 
ATOM     12  C   UNL     1      -8.072 -42.643  30.129  0.00  0.00    +0.029 C 
ATOM     13  C   UNL     1      -8.141 -42.635  31.588  0.00  0.00    +0.173 C 
ATOM     14  O   UNL     1      -7.283 -43.269  32.235  0.00  0.00    -0.291 OA
ATOM     15  C   UNL     1      -9.258 -41.847  32.192  0.00  0.00    +0.069 C 
ATOM     16  C   UNL     1     -10.487 -41.810  31.268  0.00  0.00    +0.012 C 
ATOM     17  C   UNL     1     -10.429 -42.967  30.297  0.00  0.00    +0.021 C 
ATOM     18  C   UNL     1     -11.625 -43.122  29.403  0.00  0.00    +0.028 C 
ENDROOT
BRANCH   1  19
ATOM     19  N   UNL     1     -13.304 -44.599  30.230  0.00  0.00    -0.112 NA
BRANCH  19  20
ATOM     20  S   UNL     1     -14.378 -43.295  30.412  0.00  0.00    +0.194 S 
ATOM     21  O   UNL     1     -15.797 -43.614  29.928  0.00  0.00    -0.230 OA
BRANCH  20  22
ATOM     22  C   UNL     1     -14.498 -42.607  32.030  0.00  0.00    +0.324 C 
ATOM     23  O   UNL     1     -15.402 -43.007  32.845  0.00  0.00    -0.259 OA
ATOM     24  N   UNL     1     -13.624 -41.598  32.512  0.00  0.00    -0.236 N 
ATOM     25  C   UNL     1     -13.777 -41.078  33.843  0.00  0.00    +0.306 C 
ATOM     26  O   UNL     1     -14.684 -41.528  34.555  0.00  0.00    -0.265 OA
ATOM     27  H   UNL     1     -12.908 -41.252  31.931  0.00  0.00    +0.159 HD
ENDBRANCH  20  22
ENDBRANCH  19  20
BRANCH  19  28
ATOM     28  P   UNL     1     -13.058 -45.380  31.713  0.00  0.00    +0.353 P 
ATOM     29  O   UNL     1     -12.763 -44.463  32.892  0.00  0.00    -0.254 OA
BRANCH  28  30
ATOM     30  N   UNL     1     -14.560 -46.223  32.155  0.00  0.00    -0.246 NA
ATOM     31  H   UNL     1     -15.324 -45.550  32.209  0.00  0.00    +0.129 HD
ATOM     32  H   UNL     1     -14.442 -46.676  33.061  0.00  0.00    +0.129 HD
ENDBRANCH  28  30
BRANCH  28  33
ATOM     33  O   UNL     1     -11.923 -46.662  31.677  0.00  0.00    -0.321 OA
ATOM     34  H   UNL     1     -12.115 -47.243  30.924  0.00  0.00    +0.220 HD
ENDBRANCH  28  33
ENDBRANCH  19  28
ENDBRANCH   1  19
BRANCH   1  35
ATOM     35  S   UNL     1     -10.890 -45.659  29.607  0.00  0.00    -0.056 S 
BRANCH  35  36
ATOM     36  C   UNL     1      -9.905 -45.498  31.000  0.00  0.00    +0.200 C 
ATOM     37  S   UNL     1      -8.438 -46.266  31.026  0.00  0.00    -0.004 S 
BRANCH  36  38
ATOM     38  O   UNL     1     -10.191 -44.784  32.144  0.00  0.00    -0.496 OA
ATOM     39  H   UNL     1     -11.001 -44.318  32.215  0.00  0.00    +0.293 HD
ENDBRANCH  36  38
ENDBRANCH  35  36
ENDBRANCH   1  35
TORSDOF 9
