MODEL 1
REMARK VINA RESULT:    -6.665      0.000      0.000
REMARK INTER + INTRA:         -13.144
REMARK INTER:                 -10.950
REMARK INTRA:                  -2.193
REMARK UNBOUND:                -2.193
REMARK  Name = =
REMARK  12 active torsions:
REMARK  status: ('A' for Active; 'I' for Inactive)
REMARK    1  A    between atoms: O_1  and  C_2
REMARK    2  A    between atoms: O_1  and  N_17
REMARK    3  A    between atoms: C_3  and  C_8
REMARK    4  A    between atoms: C_8  and  O_12
REMARK    5  A    between atoms: O_12  and  P_13
REMARK    6  A    between atoms: P_13  and  N_15
REMARK    7  A    between atoms: P_13  and  O_16
REMARK    8  A    between atoms: N_17  and  C_18
REMARK    9  A    between atoms: C_18  and  S_20
REMARK   10  A    between atoms: S_20  and  N_26
REMARK   11  A    between atoms: N_26  and  S_27
REMARK   12  A    between atoms: S_27  and  N_30
REMARK                            x       y       z     vdW  Elec       q    Type
REMARK                         _______ _______ _______ _____ _____    ______ ____
ROOT
ATOM      1  O   UNL     1      59.496 162.385  40.370  0.00  0.00    -0.385 OA
ENDROOT
BRANCH   1   2
ATOM      2  C   UNL     1      58.609 161.831  41.259  0.00  0.00    +0.176 C 
ATOM      3  C   UNL     1      58.732 160.515  41.638  0.00  0.00    +0.095 C 
ATOM      4  C   UNL     1      57.811 160.025  42.531  0.00  0.00    +0.105 C 
ATOM      5  N   UNL     1      56.817 160.780  43.034  0.00  0.00    -0.242 NA
ATOM      6  C   UNL     1      56.671 162.062  42.689  0.00  0.00    +0.102 C 
ATOM      7  C   UNL     1      57.569 162.603  41.794  0.00  0.00    +0.061 C 
BRANCH   3   8
ATOM      8  C   UNL     1      59.791 159.661  41.112  0.00  0.00    +0.208 C 
ATOM      9  C   UNL     1      61.020 159.725  41.570  0.00  0.00    +0.313 C 
ATOM     10  F   UNL     1      61.323 160.593  42.549  0.00  0.00    -0.169 F 
ATOM     11  F   UNL     1      61.987 158.931  41.075  0.00  0.00    -0.169 F 
BRANCH   8  12
ATOM     12  O   UNL     1      59.537 158.741  40.093  0.00  0.00    -0.407 OA
BRANCH  12  13
ATOM     13  P   UNL     1      59.073 159.241  38.519  0.00  0.00    +0.457 P 
ATOM     14  O   UNL     1      57.712 159.861  38.529  0.00  0.00    -0.229 OA
BRANCH  13  15
ATOM     15  N   UNL     1      59.127 157.845  37.470  0.00  0.00    -0.226 NA
ATOM     16  H   UNL     1      59.024 158.144  36.501  0.00  0.00    +0.131 HD
ATOM     17  H   UNL     1      58.368 157.208  37.713  0.00  0.00    +0.131 HD
ENDBRANCH  13  15
BRANCH  13  18
ATOM     18  O   UNL     1      60.195 160.381  37.993  0.00  0.00    -0.303 OA
ATOM     19  H   UNL     1      60.097 161.194  38.514  0.00  0.00    +0.222 HD
ENDBRANCH  13  18
ENDBRANCH  12  13
ENDBRANCH   8  12
ENDBRANCH   3   8
ENDBRANCH   1   2
BRANCH   1  20
ATOM     20  N   UNL     1      59.169 163.081  39.257  0.00  0.00    -0.166 N 
ATOM     21  H   UNL     1      58.546 162.656  38.625  0.00  0.00    +0.194 HD
BRANCH  20  22
ATOM     22  C   UNL     1      59.648 164.365  38.932  0.00  0.00    +0.160 C 
ATOM     23  S   UNL     1      59.139 165.657  39.785  0.00  0.00    -0.024 S 
BRANCH  22  24
ATOM     24  S   UNL     1      60.805 164.652  37.608  0.00  0.00    +0.033 S 
BRANCH  24  30
ATOM     25  C   UNL     1      59.300 163.464  35.579  0.00  0.00    +0.343 C 
ATOM     26  O   UNL     1      58.671 163.277  34.450  0.00  0.00    -0.399 OA
ATOM     27  C   UNL     1      58.126 162.090  34.399  0.00  0.00    +0.307 C 
ATOM     28  N   UNL     1      58.412 161.466  35.549  0.00  0.00    -0.101 NA
ATOM     29  N   UNL     1      59.140 162.325  36.273  0.00  0.00    -0.090 NA
ATOM     30  N   UNL     1      60.019 164.606  36.031  0.00  0.00    -0.074 N 
BRANCH  30  31
ATOM     31  S   UNL     1      60.152 166.013  35.041  0.00  0.00    +0.142 S 
ATOM     32  O   UNL     1      61.151 165.804  33.930  0.00  0.00    -0.134 OA
ATOM     33  O   UNL     1      58.832 166.319  34.424  0.00  0.00    -0.134 OA
BRANCH  31  34
ATOM     34  N   UNL     1      60.679 167.377  35.963  0.00  0.00    -0.164 N 
ATOM     35  C   UNL     1      60.743 168.629  35.291  0.00  0.00    +0.320 C 
ATOM     36  O   UNL     1      60.428 168.739  34.076  0.00  0.00    -0.263 OA
ATOM     37  H   UNL     1      60.924 167.291  36.913  0.00  0.00    +0.178 HD
ENDBRANCH  31  34
ENDBRANCH  30  31
ENDBRANCH  24  30
ENDBRANCH  22  24
ENDBRANCH  20  22
ENDBRANCH   1  20
TORSDOF 12
ENDMDL
