REMARK  Name = =
REMARK  12 active torsions:
REMARK  status: ('A' for Active; 'I' for Inactive)
REMARK    1  A    between atoms: O_1  and  C_2
REMARK    2  A    between atoms: O_1  and  N_17
REMARK    3  A    between atoms: C_3  and  C_8
REMARK    4  A    between atoms: C_8  and  O_12
REMARK    5  A    between atoms: O_12  and  P_13
REMARK    6  A    between atoms: P_13  and  N_15
REMARK    7  A    between atoms: P_13  and  O_16
REMARK    8  A    between atoms: N_17  and  C_18
REMARK    9  A    between atoms: C_18  and  S_20
REMARK   10  A    between atoms: S_20  and  N_26
REMARK   11  A    between atoms: N_26  and  S_27
REMARK   12  A    between atoms: S_27  and  N_30
REMARK                            x       y       z     vdW  Elec       q    Type
REMARK                         _______ _______ _______ _____ _____    ______ ____
ROOT
ATOM      1  O   UNL     1      52.011 156.399  26.061  0.00  0.00    -0.385 OA
ENDROOT
BRANCH   1   2
ATOM      2  C   UNL     1      53.201 156.006  25.500  0.00  0.00    +0.176 C 
ATOM      3  C   UNL     1      53.590 154.687  25.542  0.00  0.00    +0.095 C 
ATOM      4  C   UNL     1      54.791 154.363  24.962  0.00  0.00    +0.105 C 
ATOM      5  N   UNL     1      55.578 155.278  24.366  0.00  0.00    -0.242 NA
ATOM      6  C   UNL     1      55.229 156.566  24.306  0.00  0.00    +0.102 C 
ATOM      7  C   UNL     1      54.032 156.945  24.875  0.00  0.00    +0.061 C 
BRANCH   3   8
ATOM      8  C   UNL     1      52.769 153.666  26.183  0.00  0.00    +0.208 C 
ATOM      9  C   UNL     1      52.794 152.413  25.789  0.00  0.00    +0.313 C 
ATOM     10  F   UNL     1      53.592 152.049  24.772  0.00  0.00    -0.169 F 
ATOM     11  F   UNL     1      52.032 151.482  26.390  0.00  0.00    -0.169 F 
BRANCH   8  12
ATOM     12  O   UNL     1      51.919 153.984  27.244  0.00  0.00    -0.407 OA
BRANCH  12  13
ATOM     13  P   UNL     1      52.205 153.407  28.834  0.00  0.00    +0.457 P 
ATOM     14  O   UNL     1      51.772 151.982  28.977  0.00  0.00    -0.229 OA
BRANCH  13  15
ATOM     15  N   UNL     1      51.349 154.445  29.948  0.00  0.00    -0.226 NA
ATOM     16  H   UNL     1      50.347 154.381  29.771  0.00  0.00    +0.131 HD
ATOM     17  H   UNL     1      51.656 155.409  29.819  0.00  0.00    +0.131 HD
ENDBRANCH  13  15
BRANCH  13  18
ATOM     18  O   UNL     1      53.859 153.513  29.127  0.00  0.00    -0.303 OA
ATOM     19  H   UNL     1      54.335 152.937  28.508  0.00  0.00    +0.222 HD
ENDBRANCH  13  18
ENDBRANCH  12  13
ENDBRANCH   8  12
ENDBRANCH   3   8
ENDBRANCH   1   2
BRANCH   1  20
ATOM     20  N   UNL     1      51.870 157.057  27.234  0.00  0.00    -0.166 N 
ATOM     21  H   UNL     1      50.954 157.249  27.538  0.00  0.00    +0.194 HD
BRANCH  20  22
ATOM     22  C   UNL     1      52.930 157.489  28.055  0.00  0.00    +0.160 C 
ATOM     23  S   UNL     1      54.400 157.755  27.403  0.00  0.00    -0.024 S 
BRANCH  22  24
ATOM     24  S   UNL     1      52.740 157.763  29.805  0.00  0.00    +0.033 S 
BRANCH  24  30
ATOM     25  C   UNL     1      50.109 158.630  30.149  0.00  0.00    +0.343 C 
ATOM     26  O   UNL     1      49.077 159.396  30.381  0.00  0.00    -0.399 OA
ATOM     27  C   UNL     1      47.958 158.727  30.291  0.00  0.00    +0.307 C 
ATOM     28  N   UNL     1      48.269 157.461  29.984  0.00  0.00    -0.101 NA
ATOM     29  N   UNL     1      49.604 157.411  29.898  0.00  0.00    -0.090 NA
ATOM     30  N   UNL     1      51.493 158.961  30.148  0.00  0.00    -0.074 N 
BRANCH  30  31
ATOM     31  S   UNL     1      52.016 160.570  30.487  0.00  0.00    +0.142 S 
ATOM     32  O   UNL     1      53.175 160.963  29.606  0.00  0.00    -0.134 OA
ATOM     33  O   UNL     1      50.900 161.523  30.235  0.00  0.00    -0.134 OA
BRANCH  31  34
ATOM     34  N   UNL     1      52.536 160.724  32.129  0.00  0.00    -0.164 N 
ATOM     35  C   UNL     1      53.663 161.556  32.377  0.00  0.00    +0.320 C 
ATOM     36  O   UNL     1      54.256 162.155  31.441  0.00  0.00    -0.263 OA
ATOM     37  H   UNL     1      52.072 160.256  32.861  0.00  0.00    +0.178 HD
ENDBRANCH  31  34
ENDBRANCH  30  31
ENDBRANCH  24  30
ENDBRANCH  22  24
ENDBRANCH  20  22
ENDBRANCH   1  20
TORSDOF 12
