REMARK  Name = =
REMARK  2 active torsions:
REMARK  status: ('A' for Active; 'I' for Inactive)
REMARK    1  A    between atoms: C_1  and  N_17
REMARK    2  A    between atoms: C_9  and  C_11
REMARK                            x       y       z     vdW  Elec       q    Type
REMARK                         _______ _______ _______ _____ _____    ______ ____
ROOT
ATOM      1  C   UNL     1     -12.335 -42.882  27.651  0.00  0.00    +0.103 C 
ATOM      2  C   UNL     1     -11.103 -42.104  27.989  0.00  0.00    +0.022 C 
ATOM      3  C   UNL     1     -10.047 -42.225  26.915  0.00  0.00    +0.002 C 
ATOM      4  C   UNL     1      -8.695 -42.573  27.463  0.00  0.00    +0.000 C 
ATOM      5  C   UNL     1      -8.273 -41.705  28.613  0.00  0.00    +0.000 C 
ATOM      6  C   UNL     1      -9.396 -41.423  29.581  0.00  0.00    +0.000 C 
ATOM      7  C   UNL     1     -10.481 -42.469  29.297  0.00  0.00    +0.002 C 
ATOM      8  C   UNL     1     -11.437 -42.542  30.440  0.00  0.00    +0.001 C 
ATOM      9  C   UNL     1     -12.753 -43.115  30.045  0.00  0.00    +0.009 C 
ATOM     10  C   UNL     1     -12.655 -43.878  28.717  0.00  0.00    +0.025 C 
ENDROOT
BRANCH   9  11
ATOM     11  C   UNL     1     -13.281 -44.106  31.035  0.00  0.00    +0.058 C 
ATOM     12  C   UNL     1     -14.505 -44.038  31.548  0.00  0.00    +0.008 C 
ATOM     13  C   UNL     1     -14.727 -45.153  32.491  0.00  0.00    +0.008 C 
ATOM     14  C   UNL     1     -13.336 -45.623  32.814  0.00  0.00    +0.065 C 
ATOM     15  C   UNL     1     -12.580 -45.261  31.583  0.00  0.00    +0.150 C 
ATOM     16  O   UNL     1     -11.559 -45.817  31.103  0.00  0.00    -0.296 OA
ENDBRANCH   9  11
BRANCH   1  17
ATOM     17  N   UNL     1     -13.436 -41.974  27.441  0.00  0.00    -0.269 NA
ATOM     18  C   UNL     1     -14.498 -42.426  26.874  0.00  0.00    +0.113 C 
ENDBRANCH   1  17
TORSDOF 2
