MODEL 1
REMARK VINA RESULT:    -8.484      0.000      0.000
REMARK INTER + INTRA:         -13.618
REMARK INTER:                 -12.700
REMARK INTRA:                  -0.918
REMARK UNBOUND:                -0.918
REMARK  Name = =
REMARK  10 active torsions:
REMARK  status: ('A' for Active; 'I' for Inactive)
REMARK    1  A    between atoms: C_1  and  N_26
REMARK    2  A    between atoms: C_1  and  N_27
REMARK    3  A    between atoms: C_6  and  C_19
REMARK    4  A    between atoms: C_9  and  N_10
REMARK    5  A    between atoms: N_21  and  C_22
REMARK    6  A    between atoms: C_23  and  S_24
REMARK    7  A    between atoms: S_24  and  S_25
REMARK    8  A    between atoms: N_27  and  S_28
REMARK    9  A    between atoms: S_28  and  N_31
REMARK   10  A    between atoms: C_32  and  O_34
REMARK                            x       y       z     vdW  Elec       q    Type
REMARK                         _______ _______ _______ _____ _____    ______ ____
ROOT
ATOM      1  C   UNL     1      -2.148  -3.465  29.515  0.00  0.00    +0.117 C 
ATOM      2  C   UNL     1      -2.434  -2.524  28.363  0.00  0.00    +0.033 C 
ATOM      3  C   UNL     1      -1.352  -2.749  27.382  0.00  0.00    +0.008 C 
ATOM      4  C   UNL     1      -0.554  -1.500  27.008  0.00  0.00    +0.022 C 
ATOM      5  C   UNL     1       0.819  -1.878  27.244  0.00  0.00    -0.040 C 
ATOM      6  C   UNL     1       1.952  -1.568  26.697  0.00  0.00    +0.050 C 
ATOM      7  C   UNL     1       0.748  -2.825  28.425  0.00  0.00    +0.024 C 
ATOM      8  C   UNL     1      -0.380  -3.728  27.959  0.00  0.00    +0.022 C 
ATOM      9  C   UNL     1      -1.055  -4.395  29.144  0.00  0.00    +0.086 C 
ENDROOT
BRANCH   9  10
ATOM     10  N   UNL     1      -1.415  -5.718  28.998  0.00  0.00    -0.273 NA
ATOM     11  C   UNL     1      -1.388  -6.712  29.931  0.00  0.00    +0.058 C 
ATOM     12  C   UNL     1      -0.427  -7.803  29.478  0.00  0.00    +0.016 C 
ATOM     13  C   UNL     1      -0.394  -7.615  28.009  0.00  0.00    +0.019 C 
ATOM     14  C   UNL     1      -1.257  -6.367  27.738  0.00  0.00    +0.072 C 
ATOM     15  C   UNL     1      -0.953  -9.112  29.953  0.00  0.00    +0.001 C 
ATOM     16  C   UNL     1      -1.104  -8.999  31.479  0.00  0.00    +0.000 C 
ATOM     17  C   UNL     1      -0.458  -7.692  31.940  0.00  0.00    +0.001 C 
ATOM     18  C   UNL     1      -1.299  -6.517  31.376  0.00  0.00    +0.016 C 
ENDBRANCH   9  10
BRANCH   6  19
ATOM     19  C   UNL     1       2.343  -0.720  25.632  0.00  0.00    +0.249 C 
ATOM     20  O   UNL     1       1.960   0.519  25.716  0.00  0.00    -0.270 OA
ATOM     21  N   UNL     1       3.097  -1.046  24.493  0.00  0.00    -0.279 N 
ATOM     22  H   UNL     1       3.423  -1.964  24.352  0.00  0.00    +0.155 HD
BRANCH  21  23
ATOM     23  C   UNL     1       3.380  -0.016  23.539  0.00  0.00    +0.072 C 
ATOM     24  C   UNL     1       2.909  -0.012  22.329  0.00  0.00    +0.057 C 
BRANCH  24  25
ATOM     25  S   UNL     1       1.843  -1.326  21.744  0.00  0.00    -0.057 S 
BRANCH  25  26
ATOM     26  S   UNL     1      -0.118  -0.975  22.461  0.00  0.00    -0.105 S 
ATOM     27  H   UNL     1      -0.291   0.357  22.674  0.00  0.00    +0.114 HD
ENDBRANCH  25  26
ENDBRANCH  24  25
ENDBRANCH  21  23
ENDBRANCH   6  19
BRANCH   1  28
ATOM     28  N   UNL     1      -1.760  -2.576  30.618  0.00  0.00    -0.310 NA
ATOM     29  H   UNL     1      -0.788  -2.753  30.870  0.00  0.00    +0.120 HD
ATOM     30  H   UNL     1      -2.359  -2.754  31.424  0.00  0.00    +0.120 HD
ENDBRANCH   1  28
BRANCH   1  31
ATOM     31  N   UNL     1      -3.414  -4.114  29.823  0.00  0.00    -0.155 NA
ATOM     32  H   UNL     1      -3.234  -5.050  30.189  0.00  0.00    +0.152 HD
BRANCH  31  33
ATOM     33  S   UNL     1      -4.284  -3.181  31.019  0.00  0.00    +0.115 S 
ATOM     34  O   UNL     1      -5.724  -3.510  30.943  0.00  0.00    -0.138 OA
ATOM     35  O   UNL     1      -3.975  -1.716  30.822  0.00  0.00    -0.138 OA
BRANCH  33  36
ATOM     36  N   UNL     1      -3.704  -3.612  32.576  0.00  0.00    -0.141 N 
ATOM     37  C   UNL     1      -3.860  -4.935  33.043  0.00  0.00    +0.418 C 
ATOM     38  O   UNL     1      -4.405  -5.852  32.399  0.00  0.00    -0.225 OA
ATOM     39  H   UNL     1      -3.264  -2.937  33.142  0.00  0.00    +0.181 HD
BRANCH  37  40
ATOM     40  O   UNL     1      -3.373  -5.249  34.319  0.00  0.00    -0.465 OA
ATOM     41  H   UNL     1      -2.466  -5.123  34.519  0.00  0.00    +0.297 HD
ENDBRANCH  37  40
ENDBRANCH  33  36
ENDBRANCH  31  33
ENDBRANCH   1  31
TORSDOF 10
ENDMDL
