REMARK  Name = =
REMARK  2 active torsions:
REMARK  status: ('A' for Active; 'I' for Inactive)
REMARK    1  A    between atoms: C_1  and  N_3
REMARK    2  A    between atoms: N_6  and  C_7
REMARK                            x       y       z     vdW  Elec       q    Type
REMARK                         _______ _______ _______ _____ _____    ______ ____
ROOT
ATOM      1  N   UNL     1      53.338 155.998  26.296  0.00  0.00    -0.261 N 
ATOM      2  C   UNL     1      53.211 154.705  25.939  0.00  0.00    +0.304 C 
ATOM      3  O   UNL     1      53.912 154.778  24.757  0.00  0.00    -0.253 OA
ATOM      4  N   UNL     1      52.930 153.394  25.838  0.00  0.00    -0.261 N 
ATOM      5  H   UNL     1      53.848 156.544  25.655  0.00  0.00    +0.153 HD
ATOM      6  H   UNL     1      53.288 152.966  25.027  0.00  0.00    +0.153 HD
ENDROOT
BRANCH   1   7
ATOM      7  C   UNL     1      52.885 156.697  27.394  0.00  0.00    +0.278 C 
ATOM      8  O   UNL     1      52.232 156.008  28.215  0.00  0.00    -0.196 OA
ENDBRANCH   1   7
BRANCH   4   9
ATOM      9  C   UNL     1      52.227 152.535  26.669  0.00  0.00    +0.278 C 
ATOM     10  O   UNL     1      51.774 153.076  27.696  0.00  0.00    -0.196 OA
ENDBRANCH   4   9
TORSDOF 2
