REMARK  Name = =
REMARK  0 active torsions:
REMARK  status: ('A' for Active; 'I' for Inactive)
REMARK                            x       y       z     vdW  Elec       q    Type
REMARK                         _______ _______ _______ _____ _____    ______ ____
ROOT
ATOM      1  C   UNL     1      52.083 155.530  29.057  0.00  0.00    +0.176 C 
ATOM      2  O   UNL     1      52.508 156.813  28.716  0.00  0.00    -0.448 OA
ATOM      3  C   UNL     1      53.058 157.199  27.506  0.00  0.00    +0.176 C 
ATOM      4  C   UNL     1      53.195 156.263  26.580  0.00  0.00    +0.023 C 
ATOM      5  C   UNL     1      52.794 154.881  26.798  0.00  0.00    +0.072 C 
ATOM      6  C   UNL     1      52.953 153.913  25.798  0.00  0.00    -0.017 C 
ATOM      7  C   UNL     1      52.555 152.625  26.065  0.00  0.00    -0.004 C 
ATOM      8  C   UNL     1      52.008 152.252  27.275  0.00  0.00    -0.001 C 
ATOM      9  C   UNL     1      51.850 153.197  28.261  0.00  0.00    -0.001 C 
ATOM     10  C   UNL     1      52.251 154.510  28.000  0.00  0.00    +0.023 C 
ENDROOT
TORSDOF 0
