REMARK  Name = =
REMARK  2 active torsions:
REMARK  status: ('A' for Active; 'I' for Inactive)
REMARK    1  A    between atoms: C_1  and  N_12
REMARK    2  A    between atoms: C_11  and  S_16
REMARK                            x       y       z     vdW  Elec       q    Type
REMARK                         _______ _______ _______ _____ _____    ______ ____
ROOT
ATOM      1  C   UNL     1      52.635 154.790  27.434  0.00  0.00    +0.168 C 
ATOM      2  C   UNL     1      53.245 154.581  26.217  0.00  0.00    +0.039 C 
ATOM      3  C   UNL     1      53.194 153.341  25.584  0.00  0.00    +0.024 C 
ATOM      4  C   UNL     1      52.509 152.314  26.209  0.00  0.00    +0.022 C 
ATOM      5  C   UNL     1      51.904 152.536  27.423  0.00  0.00    +0.101 C 
ATOM      6  N   UNL     1      51.985 153.742  27.986  0.00  0.00    -0.225 NA
ATOM      7  C   UNL     1      53.808 153.153  24.373  0.00  0.00    +0.099 C 
ATOM      8  N   UNL     1      54.467 154.159  23.780  0.00  0.00    -0.242 NA
ATOM      9  C   UNL     1      54.519 155.357  24.390  0.00  0.00    +0.099 C 
ATOM     10  C   UNL     1      53.922 155.612  25.611  0.00  0.00    +0.024 C 
ENDROOT
BRANCH   1  12
ATOM     11  C   UNL     1      51.853 156.441  29.054  0.00  0.00    +0.212 A 
ATOM     12  N   UNL     1      52.683 156.052  28.088  0.00  0.00    -0.169 N 
ATOM     13  N   UNL     1      53.536 157.044  27.867  0.00  0.00    -0.037 NA
ATOM     14  N   UNL     1      53.269 158.061  28.672  0.00  0.00    -0.022 NA
ATOM     15  N   UNL     1      52.226 157.686  29.406  0.00  0.00    -0.101 NA
BRANCH  11  16
ATOM     16  S   UNL     1      50.483 155.579  29.814  0.00  0.00    -0.102 S 
ATOM     17  H   UNL     1      49.919 156.372  30.764  0.00  0.00    +0.110 HD
ENDBRANCH  11  16
ENDBRANCH   1  12
TORSDOF 2
