REMARK  Name = =
REMARK  2 active torsions:
REMARK  status: ('A' for Active; 'I' for Inactive)
REMARK    1  A    between atoms: C_1  and  C_11
REMARK    2  A    between atoms: C_9  and  O_21
REMARK                            x       y       z     vdW  Elec       q    Type
REMARK                         _______ _______ _______ _____ _____    ______ ____
ROOT
ATOM      1  C   UNL     1      52.057 156.136  28.500  0.00  0.00    +0.052 C 
ATOM      2  C   UNL     1      53.357 155.802  29.143  0.00  0.00    +0.007 C 
ATOM      3  C   UNL     1      54.039 157.109  29.477  0.00  0.00    +0.000 C 
ATOM      4  C   UNL     1      53.016 158.203  29.305  0.00  0.00    +0.001 C 
ATOM      5  C   UNL     1      51.746 157.581  28.838  0.00  0.00    +0.014 C 
ATOM      6  C   UNL     1      50.972 156.589  29.385  0.00  0.00    +0.018 C 
ATOM      7  C   UNL     1      50.004 155.872  29.960  0.00  0.00    +0.030 C 
ATOM      8  C   UNL     1      48.933 156.644  30.241  0.00  0.00    +0.006 C 
ATOM      9  C   UNL     1      49.230 157.999  29.808  0.00  0.00    +0.106 C 
ATOM     10  C   UNL     1      50.430 158.006  29.299  0.00  0.00    +0.057 C 
ENDROOT
BRANCH   1  11
ATOM     11  C   UNL     1      51.874 155.850  27.030  0.00  0.00    +0.119 C 
ATOM     12  O   UNL     1      52.613 156.819  26.339  0.00  0.00    -0.455 OA
ATOM     13  C   UNL     1      53.606 156.623  25.418  0.00  0.00    +0.175 C 
ATOM     14  C   UNL     1      53.963 155.403  25.086  0.00  0.00    +0.023 C 
ATOM     15  C   UNL     1      53.281 154.287  25.717  0.00  0.00    +0.072 C 
ATOM     16  C   UNL     1      53.647 153.012  25.373  0.00  0.00    -0.017 C 
ATOM     17  C   UNL     1      53.035 151.903  25.936  0.00  0.00    -0.004 C 
ATOM     18  C   UNL     1      52.035 152.100  26.864  0.00  0.00    -0.001 C 
ATOM     19  C   UNL     1      51.665 153.402  27.212  0.00  0.00    -0.001 C 
ATOM     20  C   UNL     1      52.275 154.494  26.650  0.00  0.00    +0.016 C 
ENDBRANCH   1  11
BRANCH   9  21
ATOM     21  O   UNL     1      48.365 159.120  29.920  0.00  0.00    -0.510 OA
ATOM     22  H   UNL     1      47.515 159.020  30.302  0.00  0.00    +0.292 HD
ENDBRANCH   9  21
TORSDOF 2
