REMARK  Name = =
REMARK  3 active torsions:
REMARK  status: ('A' for Active; 'I' for Inactive)
REMARK    1  A    between atoms: C_1  and  C_9
REMARK    2  A    between atoms: N_6  and  C_7
REMARK    3  A    between atoms: C_9  and  C_10
REMARK                            x       y       z     vdW  Elec       q    Type
REMARK                         _______ _______ _______ _____ _____    ______ ____
ROOT
ATOM      1  C   UNL     1      52.417 155.321  27.254  0.00  0.00    +0.229 C 
ATOM      2  O   UNL     1      51.443 154.700  27.651  0.00  0.00    -0.275 OA
ATOM      3  N   UNL     1      53.353 154.659  26.525  0.00  0.00    -0.240 N 
ATOM      4  C   UNL     1      53.558 153.296  26.036  0.00  0.00    +0.308 C 
ATOM      5  O   UNL     1      54.639 153.362  25.486  0.00  0.00    -0.252 OA
ATOM      6  N   UNL     1      52.682 152.287  26.215  0.00  0.00    -0.261 N 
ATOM      7  H   UNL     1      54.088 155.255  26.254  0.00  0.00    +0.159 HD
ATOM      8  H   UNL     1      51.793 152.256  26.638  0.00  0.00    +0.153 HD
ENDROOT
BRANCH   6   9
ATOM      9  C   UNL     1      53.665 151.032  25.434  0.00  0.00    +0.278 C 
ATOM     10  O   UNL     1      54.682 151.402  25.041  0.00  0.00    -0.196 OA
ENDBRANCH   6   9
BRANCH   1  11
ATOM     11  C   UNL     1      52.701 156.783  27.495  0.00  0.00    +0.085 C 
BRANCH  11  12
ATOM     12  C   UNL     1      51.820 157.307  28.556  0.00  0.00    +0.010 C 
ATOM     13  C   UNL     1      52.109 156.577  29.838  0.00  0.00    +0.001 C 
ENDBRANCH  11  12
ENDBRANCH   1  11
TORSDOF 3
