REMARK  Name = =
REMARK  5 active torsions:
REMARK  status: ('A' for Active; 'I' for Inactive)
REMARK    1  A    between atoms: C_1  and  S_16
REMARK    2  A    between atoms: N_2  and  C_6
REMARK    3  A    between atoms: S_16  and  O_17
REMARK    4  A    between atoms: O_17  and  C_18
REMARK    5  A    between atoms: C_18  and  O_20
REMARK                            x       y       z     vdW  Elec       q    Type
REMARK                         _______ _______ _______ _____ _____    ______ ____
ROOT
ATOM      1  C   UNL     1      52.165 153.283  25.817  0.00  0.00    +0.254 A 
ATOM      2  N   UNL     1      53.097 153.729  26.679  0.00  0.00    -0.166 N 
ATOM      3  N   UNL     1      53.952 152.730  26.822  0.00  0.00    -0.037 NA
ATOM      4  N   UNL     1      53.571 151.695  26.078  0.00  0.00    -0.022 NA
ATOM      5  N   UNL     1      52.460 152.011  25.442  0.00  0.00    -0.098 NA
ENDROOT
BRANCH   2   6
ATOM      6  C   UNL     1      53.095 155.021  27.271  0.00  0.00    +0.168 C 
ATOM      7  C   UNL     1      52.139 155.292  28.236  0.00  0.00    +0.039 C 
ATOM      8  C   UNL     1      52.075 156.536  28.861  0.00  0.00    +0.024 C 
ATOM      9  C   UNL     1      52.981 157.515  28.510  0.00  0.00    +0.022 C 
ATOM     10  C   UNL     1      53.908 157.185  27.543  0.00  0.00    +0.101 C 
ATOM     11  N   UNL     1      53.955 155.986  26.954  0.00  0.00    -0.225 NA
ATOM     12  C   UNL     1      51.114 156.782  29.819  0.00  0.00    +0.099 C 
ATOM     13  N   UNL     1      50.255 155.802  30.128  0.00  0.00    -0.242 NA
ATOM     14  C   UNL     1      50.289 154.591  29.545  0.00  0.00    +0.099 C 
ATOM     15  C   UNL     1      51.240 154.313  28.580  0.00  0.00    +0.024 C 
ENDBRANCH   2   6
BRANCH   1  16
ATOM     16  S   UNL     1      50.749 154.242  25.260  0.00  0.00    +0.143 S 
BRANCH  16  17
ATOM     17  O   UNL     1      51.322 155.796  24.703  0.00  0.00    -0.351 OA
BRANCH  17  18
ATOM     18  C   UNL     1      50.763 156.372  23.570  0.00  0.00    +0.520 C 
ATOM     19  O   UNL     1      50.428 155.699  22.554  0.00  0.00    -0.202 OA
BRANCH  18  20
ATOM     20  O   UNL     1      50.531 157.752  23.479  0.00  0.00    -0.449 OA
ATOM     21  H   UNL     1      50.152 158.113  22.702  0.00  0.00    +0.299 HD
ENDBRANCH  18  20
ENDBRANCH  17  18
ENDBRANCH  16  17
ENDBRANCH   1  16
TORSDOF 5
