REMARK  Name = =
REMARK  3 active torsions:
REMARK  status: ('A' for Active; 'I' for Inactive)
REMARK    1  A    between atoms: C_1  and  C_2
REMARK    2  A    between atoms: C_1  and  S_10
REMARK    3  A    between atoms: C_1  and  C_17
REMARK                            x       y       z     vdW  Elec       q    Type
REMARK                         _______ _______ _______ _____ _____    ______ ____
ROOT
ATOM      1  C   UNL     1      52.217 155.531  27.635  0.00  0.00    +0.113 C 
ENDROOT
BRANCH   1   2
ATOM      2  C   UNL     1      53.086 156.162  26.639  0.00  0.00    +0.238 C 
ATOM      3  O   UNL     1      53.419 157.252  26.404  0.00  0.00    -0.274 OA
ATOM      4  N   UNL     1      53.745 154.938  25.601  0.00  0.00    -0.239 N 
ATOM      5  C   UNL     1      54.567 155.736  24.881  0.00  0.00    +0.313 C 
ATOM      6  O   UNL     1      54.874 156.889  25.060  0.00  0.00    -0.252 OA
ATOM      7  N   UNL     1      55.248 155.258  23.690  0.00  0.00    -0.232 N 
ATOM      8  C   UNL     1      55.326 154.133  22.945  0.00  0.00    +0.307 C 
ATOM      9  O   UNL     1      54.641 153.172  23.319  0.00  0.00    -0.265 OA
ATOM     10  H   UNL     1      53.575 153.970  25.552  0.00  0.00    +0.159 HD
ATOM     11  H   UNL     1      55.823 155.963  23.314  0.00  0.00    +0.160 HD
ENDBRANCH   1   2
BRANCH   1  12
ATOM     12  S   UNL     1      52.382 153.870  27.758  0.00  0.00    -0.143 S 
ATOM     13  C   UNL     1      51.389 152.806  28.828  0.00  0.00    +0.131 C 
ATOM     14  C   UNL     1      51.663 151.501  28.161  0.00  0.00    +0.238 C 
ATOM     15  O   UNL     1      51.844 150.451  28.843  0.00  0.00    -0.274 OA
ATOM     16  N   UNL     1      51.695 151.567  26.770  0.00  0.00    -0.247 N 
ATOM     17  C   UNL     1      52.093 152.828  26.275  0.00  0.00    +0.260 C 
ATOM     18  O   UNL     1      52.221 153.167  25.106  0.00  0.00    -0.264 OA
ATOM     19  H   UNL     1      53.639 154.126  28.209  0.00  0.00    +0.093 HD
ATOM     20  H   UNL     1      51.463 150.808  26.188  0.00  0.00    +0.158 HD
ENDBRANCH   1  12
BRANCH   1  21
ATOM     21  C   UNL     1      52.429 156.306  28.924  0.00  0.00    +0.019 C 
ATOM     22  C   UNL     1      51.186 156.458  29.742  0.00  0.00    +0.001 C 
ENDBRANCH   1  21
TORSDOF 3
