REMARK  Name = =
REMARK  5 active torsions:
REMARK  status: ('A' for Active; 'I' for Inactive)
REMARK    1  A    between atoms: C_1  and  C_2
REMARK    2  A    between atoms: C_1  and  S_10
REMARK    3  A    between atoms: C_1  and  C_21
REMARK    4  A    between atoms: C_11  and  N_18
REMARK    5  A    between atoms: N_18  and  C_19
REMARK                            x       y       z     vdW  Elec       q    Type
REMARK                         _______ _______ _______ _____ _____    ______ ____
ROOT
ATOM      1  C   UNL     1      51.758 155.175  26.991  0.00  0.00    +0.125 C 
ENDROOT
BRANCH   1   2
ATOM      2  C   UNL     1      52.318 155.731  25.753  0.00  0.00    +0.239 C 
ATOM      3  O   UNL     1      51.910 156.034  24.710  0.00  0.00    -0.274 OA
ATOM      4  N   UNL     1      54.009 155.995  25.971  0.00  0.00    -0.239 N 
ATOM      5  C   UNL     1      54.243 156.696  24.813  0.00  0.00    +0.313 C 
ATOM      6  O   UNL     1      53.614 157.030  23.902  0.00  0.00    -0.252 OA
ATOM      7  N   UNL     1      55.664 156.977  25.076  0.00  0.00    -0.232 N 
ATOM      8  C   UNL     1      55.977 157.896  23.655  0.00  0.00    +0.307 C 
ATOM      9  O   UNL     1      55.062 158.050  22.945  0.00  0.00    -0.265 OA
ATOM     10  H   UNL     1      54.616 155.727  26.698  0.00  0.00    +0.159 HD
ATOM     11  H   UNL     1      56.249 156.721  25.826  0.00  0.00    +0.160 HD
ENDBRANCH   1   2
BRANCH   1  12
ATOM     12  S   UNL     1      51.867 153.543  27.134  0.00  0.00    -0.071 S 
ATOM     13  C   UNL     1      51.964 152.296  25.895  0.00  0.00    +0.196 C 
ATOM     14  C   UNL     1      52.397 151.121  26.683  0.00  0.00    +0.257 C 
ATOM     15  O   UNL     1      52.099 149.924  26.275  0.00  0.00    -0.272 OA
ATOM     16  N   UNL     1      53.117 151.396  27.833  0.00  0.00    -0.245 N 
ATOM     17  C   UNL     1      52.921 152.677  28.372  0.00  0.00    +0.272 C 
ATOM     18  O   UNL     1      53.361 153.115  29.435  0.00  0.00    -0.263 OA
ATOM     19  H   UNL     1      53.724 150.739  28.244  0.00  0.00    +0.158 HD
BRANCH  13  20
ATOM     20  N   UNL     1      52.851 152.609  24.840  0.00  0.00    -0.318 N 
ATOM     21  H   UNL     1      52.441 152.734  23.954  0.00  0.00    +0.148 HD
BRANCH  20  22
ATOM     22  C   UNL     1      54.242 152.763  24.900  0.00  0.00    +0.059 C 
ATOM     23  C   UNL     1      55.095 151.813  25.195  0.00  0.00    +0.017 C 
ENDBRANCH  20  22
ENDBRANCH  13  20
ENDBRANCH   1  12
BRANCH   1  24
ATOM     24  C   UNL     1      52.448 155.891  28.173  0.00  0.00    +0.020 C 
ATOM     25  C   UNL     1      51.476 156.125  29.286  0.00  0.00    +0.001 C 
ENDBRANCH   1  24
TORSDOF 5
REMARK  Name = =
REMARK  5 active torsions:
REMARK  status: ('A' for Active; 'I' for Inactive)
REMARK    1  A    between atoms: C_1  and  C_2
REMARK    2  A    between atoms: C_1  and  S_10
REMARK    3  A    between atoms: C_1  and  C_21
REMARK    4  A    between atoms: C_11  and  N_18
REMARK    5  A    between atoms: N_18  and  C_19
REMARK                            x       y       z     vdW  Elec       q    Type
REMARK                         _______ _______ _______ _____ _____    ______ ____
ROOT
ATOM      1  H   UNK     1      50.264 153.065  27.873  0.00  0.00    +0.000 HD
ENDROOT
TORSDOF 0
