REMARK  Name = =
REMARK  9 active torsions:
REMARK  status: ('A' for Active; 'I' for Inactive)
REMARK    1  A    between atoms: S_1  and  C_8
REMARK    2  A    between atoms: C_2  and  N_19
REMARK    3  A    between atoms: C_8  and  C_9
REMARK    4  A    between atoms: C_8  and  C_17
REMARK    5  A    between atoms: N_14  and  C_15
REMARK    6  A    between atoms: N_19  and  C_20
REMARK    7  A    between atoms: N_19  and  N_22
REMARK    8  A    between atoms: N_22  and  C_23
REMARK    9  A    between atoms: C_23  and  N_25
REMARK                            x       y       z     vdW  Elec       q    Type
REMARK                         _______ _______ _______ _____ _____    ______ ____
ROOT
ATOM      1  S   UNL     1      52.224 154.961  27.645  0.00  0.00    -0.126 S 
ATOM      2  C   UNL     1      53.586 156.127  27.247  0.00  0.00    +0.205 C 
ATOM      3  C   UNL     1      52.842 157.379  27.505  0.00  0.00    +0.258 C 
ATOM      4  O   UNL     1      52.910 158.357  26.706  0.00  0.00    -0.272 OA
ATOM      5  N   UNL     1      52.090 157.349  28.695  0.00  0.00    -0.246 N 
ATOM      6  C   UNL     1      51.587 156.089  29.020  0.00  0.00    +0.262 C 
ATOM      7  O   UNL     1      50.884 155.656  29.936  0.00  0.00    -0.264 OA
ATOM      8  H   UNL     1      51.404 154.566  26.634  0.00  0.00    +0.094 HD
ATOM      9  H   UNL     1      51.933 158.147  29.249  0.00  0.00    +0.158 HD
ENDROOT
BRANCH   1  10
ATOM     10  C   UNL     1      52.696 153.401  28.206  0.00  0.00    +0.114 C 
BRANCH  10  11
ATOM     11  C   UNL     1      52.319 152.413  27.208  0.00  0.00    +0.238 C 
ATOM     12  O   UNL     1      51.366 152.035  26.693  0.00  0.00    -0.274 OA
ATOM     13  N   UNL     1      53.810 151.647  26.730  0.00  0.00    -0.239 N 
ATOM     14  C   UNL     1      53.218 150.818  25.806  0.00  0.00    +0.308 C 
ATOM     15  O   UNL     1      52.009 150.747  25.408  0.00  0.00    -0.252 OA
ATOM     16  N   UNL     1      53.986 149.898  25.174  0.00  0.00    -0.261 N 
ATOM     17  H   UNL     1      54.744 151.766  27.019  0.00  0.00    +0.159 HD
ATOM     18  H   UNL     1      53.225 149.538  24.664  0.00  0.00    +0.153 HD
BRANCH  16  19
ATOM     19  C   UNL     1      54.827 149.064  24.637  0.00  0.00    +0.278 C 
ATOM     20  O   UNL     1      54.086 148.293  23.793  0.00  0.00    -0.196 OA
ENDBRANCH  16  19
ENDBRANCH  10  11
BRANCH  10  21
ATOM     21  C   UNL     1      52.028 153.088  29.502  0.00  0.00    +0.019 C 
ATOM     22  C   UNL     1      51.202 151.821  29.486  0.00  0.00    +0.001 C 
ENDBRANCH  10  21
ENDBRANCH   1  10
BRANCH   2  23
ATOM     23  N   UNL     1      53.958 155.987  25.890  0.00  0.00    -0.222 N 
BRANCH  23  24
ATOM     24  C   UNL     1      54.741 156.981  25.262  0.00  0.00    +0.081 C 
ATOM     25  C   UNL     1      54.546 157.288  23.976  0.00  0.00    +0.019 C 
ENDBRANCH  23  24
BRANCH  23  26
ATOM     26  N   UNL     1      53.556 154.884  25.139  0.00  0.00    -0.244 N 
ATOM     27  H   UNL     1      52.593 154.704  25.039  0.00  0.00    +0.172 HD
BRANCH  26  28
ATOM     28  C   UNL     1      54.479 154.013  24.515  0.00  0.00    +0.144 C 
ATOM     29  S   UNL     1      54.088 153.211  23.162  0.00  0.00    -0.018 S 
BRANCH  28  30
ATOM     30  N   UNL     1      55.777 153.828  25.068  0.00  0.00    -0.340 N 
ATOM     31  H   UNL     1      56.035 154.306  25.889  0.00  0.00    +0.144 HD
ATOM     32  H   UNL     1      56.417 153.222  24.629  0.00  0.00    +0.144 HD
ENDBRANCH  28  30
ENDBRANCH  26  28
ENDBRANCH  23  26
ENDBRANCH   2  23
TORSDOF 9
