REMARK  Name = =
REMARK  10 active torsions:
REMARK  status: ('A' for Active; 'I' for Inactive)
REMARK    1  A    between atoms: S_1  and  C_8
REMARK    2  A    between atoms: C_2  and  N_19
REMARK    3  A    between atoms: C_8  and  C_9
REMARK    4  A    between atoms: C_8  and  C_17
REMARK    5  A    between atoms: N_14  and  C_15
REMARK    6  A    between atoms: N_19  and  C_20
REMARK    7  A    between atoms: N_19  and  N_22
REMARK    8  A    between atoms: N_22  and  S_23
REMARK    9  A    between atoms: N_22  and  C_26
REMARK   10  A    between atoms: C_26  and  N_28
REMARK                            x       y       z     vdW  Elec       q    Type
REMARK                         _______ _______ _______ _____ _____    ______ ____
ROOT
ATOM      1  S   UNL     1      53.326 154.138  26.850  0.00  0.00    -0.126 S 
ATOM      2  C   UNL     1      52.827 152.737  25.798  0.00  0.00    +0.207 C 
ATOM      3  C   UNL     1      52.200 151.867  26.777  0.00  0.00    +0.258 C 
ATOM      4  O   UNL     1      51.257 151.052  26.438  0.00  0.00    -0.272 OA
ATOM      5  N   UNL     1      52.664 151.957  28.086  0.00  0.00    -0.246 N 
ATOM      6  C   UNL     1      53.067 153.238  28.456  0.00  0.00    +0.262 C 
ATOM      7  O   UNL     1      53.229 153.705  29.571  0.00  0.00    -0.264 OA
ATOM      8  H   UNL     1      54.527 154.712  26.569  0.00  0.00    +0.094 HD
ATOM      9  H   UNL     1      52.704 151.185  28.696  0.00  0.00    +0.158 HD
ENDROOT
BRANCH   1  10
ATOM     10  C   UNL     1      52.034 155.514  26.794  0.00  0.00    +0.114 C 
BRANCH  10  11
ATOM     11  C   UNL     1      52.568 156.597  27.568  0.00  0.00    +0.238 C 
ATOM     12  O   UNL     1      53.625 157.046  27.745  0.00  0.00    -0.274 OA
ATOM     13  N   UNL     1      51.319 157.410  28.452  0.00  0.00    -0.239 N 
ATOM     14  C   UNL     1      52.143 158.252  29.142  0.00  0.00    +0.308 C 
ATOM     15  O   UNL     1      53.411 158.396  29.146  0.00  0.00    -0.252 OA
ATOM     16  N   UNL     1      51.555 159.145  30.024  0.00  0.00    -0.261 N 
ATOM     17  H   UNL     1      50.341 157.301  28.456  0.00  0.00    +0.159 HD
ATOM     18  H   UNL     1      50.664 158.884  29.698  0.00  0.00    +0.153 HD
BRANCH  16  19
ATOM     19  C   UNL     1      51.004 159.992  30.861  0.00  0.00    +0.278 C 
ATOM     20  O   UNL     1      52.043 160.655  31.393  0.00  0.00    -0.196 OA
ENDBRANCH  16  19
ENDBRANCH  10  11
BRANCH  10  21
ATOM     21  C   UNL     1      51.957 155.900  25.319  0.00  0.00    +0.019 C 
ATOM     22  C   UNL     1      53.250 156.366  24.753  0.00  0.00    +0.001 C 
ENDBRANCH  10  21
ENDBRANCH   1  10
BRANCH   2  23
ATOM     23  N   UNL     1      53.995 152.163  25.169  0.00  0.00    -0.200 N 
BRANCH  23  24
ATOM     24  C   UNL     1      53.792 150.857  24.598  0.00  0.00    +0.083 C 
ATOM     25  C   UNL     1      53.718 149.783  25.362  0.00  0.00    +0.019 C 
ENDBRANCH  23  24
BRANCH  23  26
ATOM     26  N   UNL     1      55.236 152.732  25.046  0.00  0.00    -0.101 N 
BRANCH  26  27
ATOM     27  S   UNL     1      55.533 153.726  23.667  0.00  0.00    +0.052 S 
ATOM     28  O   UNL     1      55.847 155.133  24.041  0.00  0.00    -0.156 OA
ATOM     29  O   UNL     1      54.414 153.633  22.670  0.00  0.00    -0.156 OA
ATOM     30  H   UNL     1      56.648 153.242  23.057  0.00  0.00    +0.235 HD
ENDBRANCH  26  27
BRANCH  26  31
ATOM     31  C   UNL     1      56.263 152.527  25.962  0.00  0.00    +0.169 C 
ATOM     32  S   UNL     1      57.776 153.098  25.700  0.00  0.00    -0.016 S 
BRANCH  31  33
ATOM     33  N   UNL     1      56.052 151.825  27.166  0.00  0.00    -0.338 N 
ATOM     34  H   UNL     1      55.161 151.460  27.374  0.00  0.00    +0.144 HD
ATOM     35  H   UNL     1      56.795 151.699  27.799  0.00  0.00    +0.144 HD
ENDBRANCH  31  33
ENDBRANCH  26  31
ENDBRANCH  23  26
ENDBRANCH   2  23
TORSDOF 10
