REMARK  Name = =
REMARK  11 active torsions:
REMARK  status: ('A' for Active; 'I' for Inactive)
REMARK    1  A    between atoms: S_1  and  C_9
REMARK    2  A    between atoms: C_2  and  N_20
REMARK    3  A    between atoms: C_9  and  C_10
REMARK    4  A    between atoms: C_9  and  C_18
REMARK    5  A    between atoms: N_20  and  C_21
REMARK    6  A    between atoms: N_20  and  N_23
REMARK    7  A    between atoms: N_23  and  S_24
REMARK    8  A    between atoms: N_23  and  C_35
REMARK    9  A    between atoms: S_24  and  C_27
REMARK   10  A    between atoms: C_27  and  C_29
REMARK   11  A    between atoms: C_35  and  N_37
REMARK                            x       y       z     vdW  Elec       q    Type
REMARK                         _______ _______ _______ _____ _____    ______ ____
ROOT
ATOM      1  S   UNL     1      52.750 155.829  27.656  0.00  0.00    -0.069 S 
ATOM      2  C   UNL     1      51.365 156.613  28.442  0.00  0.00    +0.217 C 
ATOM      3  C   UNL     1      51.395 155.592  29.654  0.00  0.00    +0.259 C 
ATOM      4  O   UNL     1      51.565 155.971  30.799  0.00  0.00    -0.272 OA
ATOM      5  N   UNL     1      51.190 154.333  29.082  0.00  0.00    -0.245 N 
ATOM      6  C   UNL     1      51.845 154.151  27.847  0.00  0.00    +0.272 C 
ATOM      7  O   UNL     1      51.850 153.223  27.104  0.00  0.00    -0.263 OA
ATOM      8  H   UNL     1      50.638 153.636  29.504  0.00  0.00    +0.158 HD
ENDROOT
BRANCH   1   9
ATOM      9  C   UNL     1      53.565 156.092  26.260  0.00  0.00    +0.125 C 
BRANCH   9  10
ATOM     10  C   UNL     1      53.626 154.797  25.446  0.00  0.00    +0.239 C 
ATOM     11  O   UNL     1      53.138 154.451  24.472  0.00  0.00    -0.274 OA
ATOM     12  N   UNL     1      54.654 153.682  26.229  0.00  0.00    -0.239 N 
ATOM     13  C   UNL     1      54.507 152.640  25.335  0.00  0.00    +0.313 C 
ATOM     14  O   UNL     1      53.773 152.432  24.452  0.00  0.00    -0.252 OA
ATOM     15  N   UNL     1      55.602 151.776  25.793  0.00  0.00    -0.232 N 
ATOM     16  C   UNL     1      55.169 150.347  24.954  0.00  0.00    +0.307 C 
ATOM     17  O   UNL     1      54.168 150.403  24.316  0.00  0.00    -0.265 OA
ATOM     18  H   UNL     1      55.184 153.758  27.055  0.00  0.00    +0.159 HD
ATOM     19  H   UNL     1      56.356 151.962  26.398  0.00  0.00    +0.160 HD
ENDBRANCH   9  10
BRANCH   9  20
ATOM     20  C   UNL     1      52.990 157.079  25.315  0.00  0.00    +0.020 C 
ATOM     21  C   UNL     1      53.956 157.721  24.363  0.00  0.00    +0.001 C 
ENDBRANCH   9  20
ENDBRANCH   1   9
BRANCH   2  22
ATOM     22  N   UNL     1      51.447 157.884  28.930  0.00  0.00    -0.199 N 
BRANCH  22  23
ATOM     23  C   UNL     1      52.741 158.537  28.809  0.00  0.00    +0.083 C 
ATOM     24  C   UNL     1      53.803 157.793  29.185  0.00  0.00    +0.019 C 
ENDBRANCH  22  23
BRANCH  22  25
ATOM     25  N   UNL     1      50.524 158.608  29.650  0.00  0.00    -0.091 N 
BRANCH  25  26
ATOM     26  S   UNL     1      48.877 158.282  29.942  0.00  0.00    +0.130 S 
ATOM     27  O   UNL     1      48.643 156.805  29.780  0.00  0.00    -0.145 OA
ATOM     28  O   UNL     1      47.961 159.070  29.051  0.00  0.00    -0.145 OA
BRANCH  26  29
ATOM     29  C   UNL     1      48.533 158.687  31.600  0.00  0.00    +0.320 C 
ATOM     30  O   UNL     1      48.099 157.677  32.302  0.00  0.00    -0.264 OA
BRANCH  29  31
ATOM     31  C   UNL     1      48.652 159.942  32.270  0.00  0.00    +0.059 C 
ATOM     32  C   UNL     1      49.294 160.144  33.462  0.00  0.00    +0.005 C 
ATOM     33  C   UNL     1      49.451 161.427  34.000  0.00  0.00    +0.000 C 
ATOM     34  C   UNL     1      48.975 162.506  33.363  0.00  0.00    +0.000 C 
ATOM     35  C   UNL     1      48.314 162.360  32.142  0.00  0.00    +0.000 C 
ATOM     36  C   UNL     1      48.170 161.103  31.631  0.00  0.00    +0.005 C 
ENDBRANCH  29  31
ENDBRANCH  26  29
ENDBRANCH  25  26
BRANCH  25  37
ATOM     37  C   UNL     1      51.043 159.831  30.197  0.00  0.00    +0.170 C 
ATOM     38  S   UNL     1      50.726 161.265  29.529  0.00  0.00    -0.016 S 
BRANCH  37  39
ATOM     39  N   UNL     1      51.866 159.845  31.347  0.00  0.00    -0.338 N 
ATOM     40  H   UNL     1      52.095 159.001  31.799  0.00  0.00    +0.144 HD
ATOM     41  H   UNL     1      52.210 160.699  31.696  0.00  0.00    +0.144 HD
ENDBRANCH  37  39
ENDBRANCH  25  37
ENDBRANCH  22  25
ENDBRANCH   2  22
TORSDOF 11
REMARK  Name = =
REMARK  11 active torsions:
REMARK  status: ('A' for Active; 'I' for Inactive)
REMARK    1  A    between atoms: S_1  and  C_9
REMARK    2  A    between atoms: C_2  and  N_20
REMARK    3  A    between atoms: C_9  and  C_10
REMARK    4  A    between atoms: C_9  and  C_18
REMARK    5  A    between atoms: N_20  and  C_21
REMARK    6  A    between atoms: N_20  and  N_23
REMARK    7  A    between atoms: N_23  and  S_24
REMARK    8  A    between atoms: N_23  and  C_35
REMARK    9  A    between atoms: S_24  and  C_27
REMARK   10  A    between atoms: C_27  and  C_29
REMARK   11  A    between atoms: C_35  and  N_37
REMARK                            x       y       z     vdW  Elec       q    Type
REMARK                         _______ _______ _______ _____ _____    ______ ____
ROOT
ATOM      1  H   UNK     1      53.897 155.617  29.070  0.00  0.00    +0.000 HD
ENDROOT
TORSDOF 0
