MODEL 1
REMARK VINA RESULT:    -5.712      0.000      0.000
REMARK INTER + INTRA:          -8.017
REMARK INTER:                  -8.384
REMARK INTRA:                   0.367
REMARK UNBOUND:                 0.367
REMARK  Name = =
REMARK  10 active torsions:
REMARK  status: ('A' for Active; 'I' for Inactive)
REMARK    1  A    between atoms: C_1  and  N_11
REMARK    2  A    between atoms: C_1  and  C_18
REMARK    3  A    between atoms: C_9  and  O_32
REMARK    4  A    between atoms: C_18  and  O_23
REMARK    5  A    between atoms: O_23  and  P_24
REMARK    6  A    between atoms: P_24  and  O_26
REMARK    7  A    between atoms: P_24  and  O_27
REMARK    8  A    between atoms: O_27  and  P_28
REMARK    9  A    between atoms: P_28  and  O_30
REMARK   10  A    between atoms: P_28  and  O_31
REMARK                            x       y       z     vdW  Elec       q    Type
REMARK                         _______ _______ _______ _____ _____    ______ ____
ROOT
ATOM      1  C   UNL     1      60.205 162.158  40.751  0.00  0.00    +0.089 C 
ATOM      2  C   UNL     1      59.356 162.088  42.034  0.00  0.00    +0.022 C 
ATOM      3  C   UNL     1      58.965 160.748  42.499  0.00  0.00    +0.006 C 
ATOM      4  C   UNL     1      59.852 159.625  41.961  0.00  0.00    +0.026 C 
ATOM      5  C   UNL     1      59.631 159.811  40.475  0.00  0.00    -0.022 C 
ATOM      6  C   UNL     1      59.808 161.062  39.901  0.00  0.00    -0.011 C 
ATOM      7  C   UNL     1      59.581 161.135  38.544  0.00  0.00    -0.000 C 
ATOM      8  C   UNL     1      59.204 160.034  37.820  0.00  0.00    +0.036 C 
ATOM      9  C   UNL     1      59.038 158.811  38.425  0.00  0.00    +0.133 C 
ATOM     10  C   UNL     1      59.255 158.695  39.781  0.00  0.00    +0.032 C 
ENDROOT
BRANCH   1  11
ATOM     11  N   UNL     1      61.531 161.836  41.169  0.00  0.00    -0.268 NA
ATOM     12  C   UNL     1      62.130 162.263  42.309  0.00  0.00    +0.091 C 
ATOM     13  C   UNL     1      63.617 162.556  42.270  0.00  0.00    +0.106 C 
ATOM     14  N   UNL     1      64.445 161.578  41.680  0.00  0.00    -0.217 NA
ATOM     15  C   UNL     1      63.913 160.261  41.545  0.00  0.00    +0.090 C 
ATOM     16  C   UNL     1      63.171 160.250  40.201  0.00  0.00    +0.036 C 
ATOM     17  C   UNL     1      62.415 161.536  40.054  0.00  0.00    +0.074 C 
ENDBRANCH   1  11
BRANCH   1  18
ATOM     18  C   UNL     1      60.120 163.554  40.234  0.00  0.00    +0.134 C 
ATOM     19  C   UNL     1      58.824 163.963  39.637  0.00  0.00    +0.098 C 
ATOM     20  N   UNL     1      58.122 164.936  40.445  0.00  0.00    -0.295 NA
ATOM     21  C   UNL     1      59.297 165.765  40.775  0.00  0.00    +0.071 C 
ATOM     22  C   UNL     1      60.290 164.655  41.223  0.00  0.00    +0.048 C 
ATOM     23  H   UNL     1      57.691 164.520  41.271  0.00  0.00    +0.123 HD
BRANCH  18  24
ATOM     24  O   UNL     1      61.101 163.657  39.273  0.00  0.00    -0.275 OA
BRANCH  24  25
ATOM     25  P   UNL     1      61.062 164.525  37.940  0.00  0.00    +0.484 P 
ATOM     26  O   UNL     1      62.417 164.227  37.228  0.00  0.00    -0.227 OA
BRANCH  25  27
ATOM     27  O   UNL     1      61.169 166.191  38.192  0.00  0.00    -0.302 OA
ATOM     28  H   UNL     1      62.053 166.501  37.941  0.00  0.00    +0.222 HD
ENDBRANCH  25  27
BRANCH  25  29
ATOM     29  O   UNL     1      59.941 164.115  36.758  0.00  0.00    -0.186 OA
BRANCH  29  30
ATOM     30  P   UNL     1      59.946 165.069  35.408  0.00  0.00    +0.481 P 
ATOM     31  O   UNL     1      59.711 166.534  35.691  0.00  0.00    -0.227 OA
BRANCH  30  32
ATOM     32  O   UNL     1      58.639 164.566  34.422  0.00  0.00    -0.302 OA
ATOM     33  H   UNL     1      58.431 163.638  34.609  0.00  0.00    +0.222 HD
ENDBRANCH  30  32
BRANCH  30  34
ATOM     34  O   UNL     1      61.369 164.936  34.505  0.00  0.00    -0.302 OA
ATOM     35  H   UNL     1      61.289 164.195  33.884  0.00  0.00    +0.222 HD
ENDBRANCH  30  34
ENDBRANCH  29  30
ENDBRANCH  25  29
ENDBRANCH  24  25
ENDBRANCH  18  24
ENDBRANCH   1  18
BRANCH   9  36
ATOM     36  O   UNL     1      58.655 157.712  37.668  0.00  0.00    -0.506 OA
ATOM     37  H   UNL     1      58.244 156.978  38.081  0.00  0.00    +0.292 HD
ENDBRANCH   9  36
TORSDOF 10
ENDMDL
