REMARK  Name = =
REMARK  10 active torsions:
REMARK  status: ('A' for Active; 'I' for Inactive)
REMARK    1  A    between atoms: N_1  and  N_4
REMARK    2  A    between atoms: C_2  and  S_5
REMARK    3  A    between atoms: N_4  and  C_6
REMARK    4  A    between atoms: C_7  and  N_8
REMARK    5  A    between atoms: S_11  and  N_14
REMARK    6  A    between atoms: S_17  and  S_19
REMARK    7  A    between atoms: S_19  and  N_20
REMARK    8  A    between atoms: N_20  and  C_21
REMARK    9  A    between atoms: N_20  and  O_30
REMARK   10  A    between atoms: O_30  and  C_31
REMARK                            x       y       z     vdW  Elec       q    Type
REMARK                         _______ _______ _______ _____ _____    ______ ____
ROOT
ATOM      1  N   UNL     1      51.033 158.736  29.571  0.00  0.00    -0.061 NA
ATOM      2  S   UNL     1      49.637 158.370  30.435  0.00  0.00    +0.191 S 
ATOM      3  O   UNL     1      49.808 158.212  31.910  0.00  0.00    -0.108 OA
ATOM      4  O   UNL     1      49.203 156.970  29.958  0.00  0.00    -0.215 OA
ATOM      5  S   UNL     1      52.045 157.251  29.507  0.00  0.00    -0.036 S 
ATOM      6  S   UNL     1      51.078 156.167  30.375  0.00  0.00    -0.013 S 
ATOM      7  H   UNL     1      53.315 157.593  29.853  0.00  0.00    +0.124 HD
ATOM      8  H   UNL     1      51.200 154.895  29.911  0.00  0.00    +0.134 HD
ENDROOT
BRANCH   2   9
ATOM      9  N   UNL     1      48.297 159.372  30.124  0.00  0.00    -0.212 N 
ATOM     10  C   UNL     1      48.379 160.540  29.333  0.00  0.00    +0.312 C 
ATOM     11  O   UNL     1      49.486 160.847  28.841  0.00  0.00    -0.264 OA
ATOM     12  H   UNL     1      47.426 159.127  30.512  0.00  0.00    +0.167 HD
ENDBRANCH   2   9
BRANCH   1  15
ATOM     13  C   UNL     1      51.463 160.707  31.003  0.00  0.00    +0.291 C 
ATOM     14  O   UNL     1      50.327 160.747  31.556  0.00  0.00    -0.261 OA
ATOM     15  N   UNL     1      51.864 159.719  30.061  0.00  0.00    -0.167 N 
BRANCH  13  16
ATOM     16  S   UNL     1      52.569 162.021  31.492  0.00  0.00    -0.083 S 
ATOM     17  H   UNL     1      51.947 162.824  32.396  0.00  0.00    +0.112 HD
ENDBRANCH  13  16
BRANCH  15  18
ATOM     18  C   UNL     1      53.192 159.786  29.573  0.00  0.00    +0.103 C 
ATOM     19  C   UNL     1      54.258 160.233  30.160  0.00  0.00    +0.082 C 
BRANCH  19  20
ATOM     20  N   UNL     1      54.412 160.775  31.438  0.00  0.00    -0.275 N 
ATOM     21  C   UNL     1      55.259 161.849  31.735  0.00  0.00    +0.304 C 
ATOM     22  O   UNL     1      55.920 162.363  30.794  0.00  0.00    -0.265 OA
ATOM     23  H   UNL     1      53.893 160.378  32.174  0.00  0.00    +0.155 HD
ENDBRANCH  19  20
ENDBRANCH  15  18
ENDBRANCH   1  15
BRANCH   5  24
ATOM     24  S   UNL     1      51.996 156.482  28.172  0.00  0.00    +0.036 S 
BRANCH  24  25
ATOM     25  N   UNL     1      53.136 155.842  27.276  0.00  0.00    -0.066 NA
BRANCH  25  26
ATOM     26  C   UNL     1      53.103 154.408  27.124  0.00  0.00    +0.092 C 
ATOM     27  C   UNL     1      51.830 153.857  26.576  0.00  0.00    +0.018 C 
ATOM     28  C   UNL     1      51.819 152.343  26.852  0.00  0.00    +0.001 C 
ATOM     29  C   UNL     1      51.434 152.105  28.291  0.00  0.00    +0.000 C 
ATOM     30  C   UNL     1      51.883 153.341  29.052  0.00  0.00    +0.001 C 
ATOM     31  C   UNL     1      53.248 153.811  28.535  0.00  0.00    +0.019 C 
ATOM     32  C   UNL     1      52.058 153.956  25.069  0.00  0.00    +0.001 C 
ATOM     33  C   UNL     1      53.515 153.666  24.912  0.00  0.00    +0.002 C 
ATOM     34  C   UNL     1      54.187 153.957  26.214  0.00  0.00    +0.019 C 
ENDBRANCH  25  26
BRANCH  25  35
ATOM     35  O   UNL     1      53.844 156.482  26.315  0.00  0.00    -0.387 OA
BRANCH  35  36
ATOM     36  C   UNL     1      53.341 156.817  25.065  0.00  0.00    +0.215 C 
ATOM     37  C   UNL     1      54.088 156.819  23.982  0.00  0.00    +0.111 C 
ATOM     38 CL   UNL     1      55.782 156.396  24.045  0.00  0.00    -0.078 Cl
ENDBRANCH  35  36
ENDBRANCH  25  35
ENDBRANCH  24  25
ENDBRANCH   5  24
TORSDOF 10
