REMARK  Name = =
REMARK  10 active torsions:
REMARK  status: ('A' for Active; 'I' for Inactive)
REMARK    1  A    between atoms: C_1  and  N_11
REMARK    2  A    between atoms: C_1  and  C_18
REMARK    3  A    between atoms: C_9  and  O_32
REMARK    4  A    between atoms: C_18  and  O_23
REMARK    5  A    between atoms: O_23  and  P_24
REMARK    6  A    between atoms: P_24  and  O_26
REMARK    7  A    between atoms: P_24  and  O_27
REMARK    8  A    between atoms: O_27  and  P_28
REMARK    9  A    between atoms: P_28  and  O_30
REMARK   10  A    between atoms: P_28  and  O_31
REMARK                            x       y       z     vdW  Elec       q    Type
REMARK                         _______ _______ _______ _____ _____    ______ ____
ROOT
ATOM      1  C   UNL     1      52.843 154.626  26.264  0.00  0.00    +0.089 C 
ATOM      2  C   UNL     1      51.638 154.709  25.309  0.00  0.00    +0.022 C 
ATOM      3  C   UNL     1      51.061 156.044  25.084  0.00  0.00    +0.006 C 
ATOM      4  C   UNL     1      52.017 157.192  25.406  0.00  0.00    +0.026 C 
ATOM      5  C   UNL     1      52.273 156.911  26.871  0.00  0.00    -0.022 C 
ATOM      6  C   UNL     1      52.677 155.645  27.272  0.00  0.00    -0.011 C 
ATOM      7  C   UNL     1      52.883 155.483  28.625  0.00  0.00    -0.000 C 
ATOM      8  C   UNL     1      52.697 156.515  29.507  0.00  0.00    +0.036 C 
ATOM      9  C   UNL     1      52.295 157.756  29.072  0.00  0.00    +0.133 C 
ATOM     10  C   UNL     1      52.078 157.960  27.726  0.00  0.00    +0.032 C 
ENDROOT
BRANCH   1  11
ATOM     11  N   UNL     1      53.959 155.058  25.487  0.00  0.00    -0.268 NA
ATOM     12  C   UNL     1      54.699 154.279  24.658  0.00  0.00    +0.091 C 
ATOM     13  C   UNL     1      56.186 154.556  24.552  0.00  0.00    +0.106 C 
ATOM     14  N   UNL     1      56.573 155.898  24.353  0.00  0.00    -0.217 NA
ATOM     15  C   UNL     1      55.582 156.802  23.868  0.00  0.00    +0.090 C 
ATOM     16  C   UNL     1      54.862 157.336  25.114  0.00  0.00    +0.036 C 
ATOM     17  C   UNL     1      54.642 156.202  26.070  0.00  0.00    +0.074 C 
ENDBRANCH   1  11
BRANCH   1  18
ATOM     18  C   UNL     1      52.987 153.201  26.680  0.00  0.00    +0.134 C 
ATOM     19  C   UNL     1      52.964 152.930  28.139  0.00  0.00    +0.098 C 
ATOM     20  N   UNL     1      51.770 152.230  28.556  0.00  0.00    -0.295 NA
ATOM     21  C   UNL     1      51.729 151.275  27.432  0.00  0.00    +0.071 C 
ATOM     22  C   UNL     1      51.923 152.256  26.241  0.00  0.00    +0.048 C 
ATOM     23  H   UNL     1      50.950 152.837  28.584  0.00  0.00    +0.123 HD
BRANCH  18  24
ATOM     24  O   UNL     1      54.197 152.784  26.172  0.00  0.00    -0.275 OA
BRANCH  24  25
ATOM     25  P   UNL     1      54.474 151.516  25.252  0.00  0.00    +0.484 P 
ATOM     26  O   UNL     1      56.026 151.360  25.241  0.00  0.00    -0.227 OA
BRANCH  25  27
ATOM     27  O   UNL     1      54.144 151.759  23.614  0.00  0.00    -0.302 OA
ATOM     28  H   UNL     1      54.336 150.946  23.121  0.00  0.00    +0.222 HD
ENDBRANCH  25  27
BRANCH  25  29
ATOM     29  O   UNL     1      53.970 150.011  25.802  0.00  0.00    -0.186 OA
BRANCH  29  30
ATOM     30  P   UNL     1      53.876 148.826  24.653  0.00  0.00    +0.481 P 
ATOM     31  O   UNL     1      52.743 147.851  24.868  0.00  0.00    -0.227 OA
BRANCH  30  32
ATOM     32  O   UNL     1      55.315 147.902  24.752  0.00  0.00    -0.302 OA
ATOM     33  H   UNL     1      55.408 147.543  25.648  0.00  0.00    +0.222 HD
ENDBRANCH  30  32
BRANCH  30  34
ATOM     34  O   UNL     1      53.748 149.433  23.081  0.00  0.00    -0.302 OA
ATOM     35  H   UNL     1      53.697 148.696  22.453  0.00  0.00    +0.222 HD
ENDBRANCH  30  34
ENDBRANCH  29  30
ENDBRANCH  25  29
ENDBRANCH  24  25
ENDBRANCH  18  24
ENDBRANCH   1  18
BRANCH   9  36
ATOM     36  O   UNL     1      52.113 158.784  29.987  0.00  0.00    -0.506 OA
ATOM     37  H   UNL     1      52.264 158.632  30.899  0.00  0.00    +0.292 HD
ENDBRANCH   9  36
TORSDOF 10
