REMARK  Name = =
REMARK  0 active torsions:
REMARK  status: ('A' for Active; 'I' for Inactive)
REMARK                            x       y       z     vdW  Elec       q    Type
REMARK                         _______ _______ _______ _____ _____    ______ ____
ROOT
ATOM      1  C   UNL     1       4.792   6.739  41.273  0.00  0.00    +0.000 C 
ATOM      2  C   UNL     1       4.997   7.744  40.349  0.00  0.00    +0.001 C 
ATOM      3  C   UNL     1       4.019   8.149  39.464  0.00  0.00    +0.015 C 
ATOM      4  C   UNL     1       2.783   7.555  39.473  0.00  0.00    +0.051 C 
ATOM      5  C   UNL     1       2.556   6.549  40.388  0.00  0.00    +0.052 C 
ATOM      6  C   UNL     1       3.549   6.142  41.280  0.00  0.00    +0.004 C 
ATOM      7  C   UNL     1       1.325   5.931  40.424  0.00  0.00    +0.198 C 
ATOM      8  O   UNL     1       1.154   5.016  41.273  0.00  0.00    -0.286 OA
ATOM      9  C   UNL     1       0.364   6.340  39.543  0.00  0.00    +0.058 C 
ATOM     10  C   UNL     1       0.646   7.355  38.648  0.00  0.00    +0.065 C 
ATOM     11  N   UNL     1       1.836   7.969  38.595  0.00  0.00    -0.311 N 
ATOM     12  H   UNL     1       2.015   8.689  37.947  0.00  0.00    +0.152 HD
ENDROOT
TORSDOF 0
