REMARK  Name = =
REMARK  4 active torsions:
REMARK  status: ('A' for Active; 'I' for Inactive)
REMARK    1  A    between atoms: C_17  and  N_31
REMARK    2  A    between atoms: C_19  and  C_34
REMARK    3  A    between atoms: C_21  and  C_28
REMARK    4  A    between atoms: C_34  and  O_36
REMARK                            x       y       z     vdW  Elec       q    Type
REMARK                         _______ _______ _______ _____ _____    ______ ____
ROOT
ATOM      1  C   UNL     1      -3.282  -4.225  30.467  0.00  0.00    -0.049 C 
ATOM      2  C   UNL     1      -4.249  -3.502  30.998  0.00  0.00    -0.033 C 
ATOM      3  C   UNL     1      -4.146  -2.076  31.275  0.00  0.00    -0.024 C 
ATOM      4  C   UNL     1      -5.137  -1.396  31.804  0.00  0.00    +0.033 C 
ATOM      5  C   UNL     1      -6.398  -2.071  32.136  0.00  0.00    +0.173 C 
ATOM      6  O   UNL     1      -7.184  -1.601  33.019  0.00  0.00    -0.291 OA
ATOM      7  C   UNL     1      -6.710  -3.310  31.406  0.00  0.00    +0.074 C 
ATOM      8  C   UNL     1      -5.539  -4.230  31.320  0.00  0.00    +0.034 C 
ATOM      9  C   UNL     1      -2.844  -1.401  30.936  0.00  0.00    +0.026 C 
ATOM     10  C   UNL     1      -1.744  -2.458  31.129  0.00  0.00    +0.009 C 
ATOM     11  C   UNL     1      -2.003  -3.556  30.121  0.00  0.00    +0.018 C 
ATOM     12  C   UNL     1      -0.870  -4.512  30.028  0.00  0.00    +0.006 C 
ATOM     13  C   UNL     1      -1.184  -5.706  30.769  0.00  0.00    +0.001 C 
ATOM     14  C   UNL     1      -2.319  -6.445  30.124  0.00  0.00    +0.004 C 
ATOM     15  C   UNL     1      -0.236  -4.728  28.696  0.00  0.00    +0.032 C 
ATOM     16  C   UNL     1      -0.497  -3.593  27.719  0.00  0.00    +0.087 C 
ATOM     17  C   UNL     1       0.478  -2.940  27.156  0.00  0.00    +0.099 C 
ATOM     18  C   UNL     1       1.907  -3.282  27.406  0.00  0.00    +0.066 C 
ATOM     19  C   UNL     1       2.184  -4.252  28.185  0.00  0.00    +0.019 C 
ATOM     20  C   UNL     1       1.152  -5.117  28.901  0.00  0.00    +0.094 C 
ATOM     21  I   UNL     1       4.241  -4.718  28.527  0.00  0.00    -0.047 I 
ATOM     22  I   UNL     1       0.233  -1.216  25.935  0.00  0.00    -0.069 I 
ATOM     23  C   UNL     1      -3.544  -5.669  30.207  0.00  0.00    +0.022 C 
ATOM     24  C   UNL     1      -0.125  -6.558  31.333  0.00  0.00    +0.000 C 
ATOM     25  C   UNL     1       1.233  -5.953  31.345  0.00  0.00    +0.001 C 
ATOM     26  C   UNL     1       1.522  -4.930  30.354  0.00  0.00    +0.013 C 
ENDROOT
BRANCH  20  27
ATOM     27  C   UNL     1       1.519  -6.477  28.464  0.00  0.00    +0.223 C 
ATOM     28  O   UNL     1       1.858  -7.304  29.324  0.00  0.00    -0.275 OA
ATOM     29  N   UNL     1       1.514  -6.912  27.123  0.00  0.00    -0.329 N 
ATOM     30  H   UNL     1       1.252  -6.291  26.405  0.00  0.00    +0.145 HD
ATOM     31  H   UNL     1       1.772  -7.837  26.904  0.00  0.00    +0.145 HD
ENDBRANCH  20  27
BRANCH  16  32
ATOM     32  N   UNL     1      -1.839  -3.451  27.356  0.00  0.00    -0.298 N 
ATOM     33  C   UNL     1      -2.549  -2.966  26.274  0.00  0.00    +0.300 C 
ATOM     34  O   UNL     1      -1.998  -2.526  25.286  0.00  0.00    -0.265 OA
ATOM     35  H   UNL     1      -2.440  -3.786  28.060  0.00  0.00    +0.150 HD
ENDBRANCH  16  32
BRANCH  18  36
ATOM     36  C   UNL     1       2.983  -2.519  26.765  0.00  0.00    +0.335 C 
ATOM     37  O   UNL     1       4.190  -2.789  27.033  0.00  0.00    -0.245 OA
BRANCH  36  38
ATOM     38  O   UNL     1       2.701  -1.513  25.877  0.00  0.00    -0.477 OA
ATOM     39  H   UNL     1       1.811  -1.305  25.672  0.00  0.00    +0.295 HD
ENDBRANCH  36  38
ENDBRANCH  18  36
TORSDOF 4
REMARK  Name = =
REMARK  4 active torsions:
REMARK  status: ('A' for Active; 'I' for Inactive)
REMARK    1  A    between atoms: C_17  and  N_31
REMARK    2  A    between atoms: C_19  and  C_34
REMARK    3  A    between atoms: C_21  and  C_28
REMARK    4  A    between atoms: C_34  and  O_36
REMARK                            x       y       z     vdW  Elec       q    Type
REMARK                         _______ _______ _______ _____ _____    ______ ____
ROOT
ATOM      1  I   UNL     1      -1.552  -6.357  28.111  0.00  0.00    -0.107 I 
ATOM      2  H   UNL     1       0.009  -6.357  28.111  0.00  0.00    +0.107 HD
ENDROOT
TORSDOF 0
