REMARK  Name = =
REMARK  0 active torsions:
REMARK  status: ('A' for Active; 'I' for Inactive)
REMARK                            x       y       z     vdW  Elec       q    Type
REMARK                         _______ _______ _______ _____ _____    ______ ____
ROOT
ATOM      1  C   UNL     1       4.970   6.243  41.690  0.00  0.00    +0.006 C 
ATOM      2  C   UNL     1       4.964   7.451  40.999  0.00  0.00    -0.002 C 
ATOM      3  C   UNL     1       3.862   7.848  40.323  0.00  0.00    -0.002 C 
ATOM      4  C   UNL     1       2.765   7.007  40.357  0.00  0.00    +0.118 C 
ATOM      5  C   UNL     1       2.755   5.795  41.043  0.00  0.00    +0.040 C 
ATOM      6  C   UNL     1       3.899   5.380  41.747  0.00  0.00    +0.032 C 
ATOM      7  C   UNL     1       1.667   4.970  41.044  0.00  0.00    +0.146 C 
ATOM      8  O   UNL     1       1.588   3.878  41.625  0.00  0.00    -0.443 OA
ATOM      9  C   UNL     1       0.548   5.388  40.326  0.00  0.00    +0.053 C 
ATOM     10  C   UNL     1       0.536   6.584  39.643  0.00  0.00    +0.061 C 
ATOM     11  N   UNL     1       1.640   7.363  39.673  0.00  0.00    -0.326 N 
ATOM     12  S   UNL     1       3.831   3.981  42.625  0.00  0.00    -0.021 S 
ATOM     13  C   UNL     1       2.542   2.780  42.597  0.00  0.00    +0.227 C 
ATOM     14  C   UNL     1       3.224   1.556  42.985  0.00  0.00    +0.293 C 
ATOM     15  O   UNL     1       2.651   0.411  42.923  0.00  0.00    -0.266 OA
ATOM     16  N   UNL     1       4.536   1.700  43.428  0.00  0.00    -0.240 N 
ATOM     17  C   UNL     1       5.185   2.876  42.976  0.00  0.00    +0.281 C 
ATOM     18  O   UNL     1       6.376   3.171  42.823  0.00  0.00    -0.263 OA
ATOM     19  H   UNL     1       1.632   8.217  39.184  0.00  0.00    +0.147 HD
ATOM     20  H   UNL     1       4.977   1.038  44.008  0.00  0.00    +0.159 HD
ENDROOT
TORSDOF 0
REMARK  Name = =
REMARK  0 active torsions:
REMARK  status: ('A' for Active; 'I' for Inactive)
REMARK                            x       y       z     vdW  Elec       q    Type
REMARK                         _______ _______ _______ _____ _____    ______ ____
ROOT
ATOM      1  H   UNK     1       3.731   4.610  44.453  0.00  0.00    +0.000 HD
ENDROOT
TORSDOF 0
