REMARK  Name = =
REMARK  2 active torsions:
REMARK  status: ('A' for Active; 'I' for Inactive)
REMARK    1  A    between atoms: C_1  and  N_20
REMARK    2  A    between atoms: C_6  and  S_12
REMARK                            x       y       z     vdW  Elec       q    Type
REMARK                         _______ _______ _______ _____ _____    ______ ____
ROOT
ATOM      1  C   UNL     1       3.706  -7.140  25.155  0.00  0.00    +0.053 C 
ATOM      2  C   UNL     1       3.196  -7.972  26.169  0.00  0.00    +0.016 C 
ATOM      3  C   UNL     1       2.155  -8.790  25.896  0.00  0.00    +0.016 C 
ATOM      4  C   UNL     1       1.635  -8.778  24.631  0.00  0.00    +0.052 C 
ATOM      5  C   UNL     1       2.133  -7.958  23.621  0.00  0.00    +0.059 C 
ATOM      6  C   UNL     1       3.213  -7.093  23.875  0.00  0.00    +0.042 C 
ATOM      7  C   UNL     1       1.604  -7.992  22.361  0.00  0.00    +0.199 C 
ATOM      8  O   UNL     1       2.016  -7.297  21.434  0.00  0.00    -0.286 OA
ATOM      9  C   UNL     1       0.544  -8.870  22.119  0.00  0.00    +0.058 C 
ATOM     10  C   UNL     1       0.040  -9.688  23.125  0.00  0.00    +0.065 C 
ATOM     11  N   UNL     1       0.601  -9.615  24.345  0.00  0.00    -0.311 N 
ATOM     12  H   UNL     1       0.249 -10.191  25.061  0.00  0.00    +0.152 HD
ENDROOT
BRANCH   6  13
ATOM     13  S   UNL     1       3.721  -6.076  22.671  0.00  0.00    -0.071 S 
ATOM     14  C   UNL     1       4.693  -6.503  21.233  0.00  0.00    +0.146 C 
ATOM     15  C   UNL     1       4.690  -5.187  20.552  0.00  0.00    +0.240 C 
ATOM     16  O   UNL     1       5.722  -4.772  19.923  0.00  0.00    -0.274 OA
ATOM     17  N   UNL     1       3.473  -4.517  20.692  0.00  0.00    -0.246 N 
ATOM     18  C   UNL     1       2.903  -4.633  21.995  0.00  0.00    +0.274 C 
ATOM     19  O   UNL     1       2.042  -3.906  22.543  0.00  0.00    -0.263 OA
ATOM     20  H   UNL     1       3.048  -4.012  19.961  0.00  0.00    +0.158 HD
ENDBRANCH   6  13
BRANCH   1  21
ATOM     21  N   UNL     1       4.855  -6.351  25.493  0.00  0.00    -0.307 N 
ATOM     22  C   UNL     1       5.096  -5.004  25.933  0.00  0.00    +0.093 C 
ATOM     23  C   UNL     1       6.418  -5.095  25.147  0.00  0.00    +0.043 C 
ATOM     24  C   UNL     1       6.272  -6.580  25.514  0.00  0.00    +0.093 C 
ENDBRANCH   1  21
TORSDOF 2
REMARK  Name = =
REMARK  2 active torsions:
REMARK  status: ('A' for Active; 'I' for Inactive)
REMARK    1  A    between atoms: C_1  and  N_20
REMARK    2  A    between atoms: C_6  and  S_12
REMARK                            x       y       z     vdW  Elec       q    Type
REMARK                         _______ _______ _______ _____ _____    ______ ____
ROOT
ATOM      1  H   UNK     1       5.046  -4.990  23.552  0.00  0.00    +0.000 HD
ENDROOT
TORSDOF 0
