REMARK  Name = =
REMARK  3 active torsions:
REMARK  status: ('A' for Active; 'I' for Inactive)
REMARK    1  A    between atoms: C_1  and  N_33
REMARK    2  A    between atoms: C_2  and  C_12
REMARK    3  A    between atoms: C_13  and  O_24
REMARK                            x       y       z     vdW  Elec       q    Type
REMARK                         _______ _______ _______ _____ _____    ______ ____
ROOT
ATOM      1  C   UNL     1       3.618  -4.284  25.574  0.00  0.00    +0.039 C 
ATOM      2  C   UNL     1       3.126  -5.353  26.281  0.00  0.00    +0.018 C 
ATOM      3  C   UNL     1       1.942  -5.183  26.965  0.00  0.00    +0.016 C 
ATOM      4  C   UNL     1       1.299  -3.972  26.921  0.00  0.00    +0.049 C 
ATOM      5  C   UNL     1       1.814  -2.889  26.195  0.00  0.00    +0.043 C 
ATOM      6  C   UNL     1       3.015  -3.022  25.484  0.00  0.00    +0.105 C 
ATOM      7  C   UNL     1       1.175  -1.684  26.189  0.00  0.00    +0.182 C 
ATOM      8  O   UNL     1       1.576  -0.676  25.577  0.00  0.00    -0.331 OA
ATOM      9  C   UNL     1      -0.012  -1.586  26.932  0.00  0.00    +0.056 C 
ATOM     10  C   UNL     1      -0.524  -2.639  27.641  0.00  0.00    +0.065 C 
ATOM     11  N   UNL     1       0.148  -3.794  27.612  0.00  0.00    -0.312 N 
ATOM     12  S   UNL     1       3.585  -1.668  24.629  0.00  0.00    -0.113 S 
ATOM     13  C   UNL     1       5.169  -1.180  24.245  0.00  0.00    +0.138 C 
ATOM     14  C   UNL     1       5.082   0.300  24.121  0.00  0.00    +0.235 C 
ATOM     15  O   UNL     1       6.163   0.961  23.873  0.00  0.00    -0.274 OA
ATOM     16  N   UNL     1       3.816   0.834  24.289  0.00  0.00    -0.271 N 
ATOM     17  C   UNL     1       2.836   0.034  24.881  0.00  0.00    +0.282 C 
ATOM     18  O   UNL     1       1.758   0.227  25.437  0.00  0.00    -0.144 OA
ATOM     19  H   UNL     1      -0.213  -4.556  28.120  0.00  0.00    +0.152 HD
ATOM     20  H   UNL     1       3.612   1.752  23.999  0.00  0.00    +0.153 HD
ENDROOT
BRANCH   2  21
ATOM     21  C   UNL     1       3.773  -6.680  26.290  0.00  0.00    +0.077 C 
ATOM     22  C   UNL     1       4.369  -7.113  27.383  0.00  0.00    +0.176 C 
ATOM     23  C   UNL     1       5.021  -8.425  27.437  0.00  0.00    +0.229 C 
ATOM     24  O   UNL     1       5.583  -8.833  28.471  0.00  0.00    -0.283 OA
ATOM     25  C   UNL     1       5.033  -9.302  26.273  0.00  0.00    +0.045 C 
ATOM     26  C   UNL     1       4.409  -8.843  25.132  0.00  0.00    +0.042 C 
ATOM     27  C   UNL     1       4.415  -9.667  24.025  0.00  0.00    +0.003 C 
ATOM     28  C   UNL     1       5.021 -10.902  24.053  0.00  0.00    +0.000 C 
ATOM     29  C   UNL     1       5.632 -11.328  25.201  0.00  0.00    +0.000 C 
ATOM     30  C   UNL     1       5.649 -10.533  26.336  0.00  0.00    +0.003 C 
ATOM     31  C   UNL     1       3.765  -7.530  25.105  0.00  0.00    +0.199 C 
ATOM     32  O   UNL     1       3.195  -7.109  24.067  0.00  0.00    -0.286 OA
BRANCH  22  33
ATOM     33  O   UNL     1       4.435  -6.374  28.566  0.00  0.00    -0.503 OA
ATOM     34  H   UNL     1       4.041  -5.525  28.611  0.00  0.00    +0.292 HD
ENDBRANCH  22  33
ENDBRANCH   2  21
BRANCH   1  35
ATOM     35  N   UNL     1       4.889  -4.441  24.954  0.00  0.00    -0.310 N 
ATOM     36  C   UNL     1       5.360  -5.689  24.295  0.00  0.00    +0.092 C 
ATOM     37  C   UNL     1       6.762  -5.178  24.258  0.00  0.00    +0.043 C 
ATOM     38  C   UNL     1       6.128  -3.845  24.601  0.00  0.00    +0.092 C 
ENDBRANCH   1  35
TORSDOF 3
REMARK  Name = =
REMARK  3 active torsions:
REMARK  status: ('A' for Active; 'I' for Inactive)
REMARK    1  A    between atoms: C_1  and  N_33
REMARK    2  A    between atoms: C_2  and  C_12
REMARK    3  A    between atoms: C_13  and  O_24
REMARK                            x       y       z     vdW  Elec       q    Type
REMARK                         _______ _______ _______ _____ _____    ______ ____
ROOT
ATOM      1  H   UNK     1       2.864  -1.871  22.954  0.00  0.00    +0.000 HD
ENDROOT
TORSDOF 0
