REMARK  Name = =
REMARK  5 active torsions:
REMARK  status: ('A' for Active; 'I' for Inactive)
REMARK    1  A    between atoms: C_1  and  N_41
REMARK    2  A    between atoms: C_2  and  C_12
REMARK    3  A    between atoms: C_6  and  S_33
REMARK    4  A    between atoms: C_13  and  O_32
REMARK    5  A    between atoms: C_19  and  C_24
REMARK                            x       y       z     vdW  Elec       q    Type
REMARK                         _______ _______ _______ _____ _____    ______ ____
ROOT
ATOM      1  C   UNL     1       3.612  -6.259  24.362  0.00  0.00    +0.054 C 
ATOM      2  C   UNL     1       3.523  -6.843  25.640  0.00  0.00    +0.021 C 
ATOM      3  C   UNL     1       3.759  -6.071  26.749  0.00  0.00    +0.016 C 
ATOM      4  C   UNL     1       4.078  -4.757  26.583  0.00  0.00    +0.052 C 
ATOM      5  C   UNL     1       4.157  -4.236  25.338  0.00  0.00    +0.059 C 
ATOM      6  C   UNL     1       3.928  -4.964  24.129  0.00  0.00    +0.042 C 
ATOM      7  C   UNL     1       4.474  -2.907  25.237  0.00  0.00    +0.199 C 
ATOM      8  O   UNL     1       4.572  -2.344  24.168  0.00  0.00    -0.286 OA
ATOM      9  C   UNL     1       4.692  -2.171  26.384  0.00  0.00    +0.058 C 
ATOM     10  C   UNL     1       4.605  -2.722  27.641  0.00  0.00    +0.065 C 
ATOM     11  N   UNL     1       4.298  -4.013  27.714  0.00  0.00    -0.311 N 
ATOM     12  H   UNL     1       4.227  -4.443  28.597  0.00  0.00    +0.152 HD
ENDROOT
BRANCH   2  13
ATOM     13  C   UNL     1       3.260  -8.253  25.884  0.00  0.00    +0.077 C 
ATOM     14  C   UNL     1       2.030  -8.615  26.182  0.00  0.00    +0.176 C 
ATOM     15  C   UNL     1       1.745 -10.040  26.437  0.00  0.00    +0.229 C 
ATOM     16  O   UNL     1       0.568 -10.370  26.721  0.00  0.00    -0.283 OA
ATOM     17  C   UNL     1       2.775 -11.064  26.370  0.00  0.00    +0.045 C 
ATOM     18  C   UNL     1       4.067 -10.682  26.056  0.00  0.00    +0.042 C 
ATOM     19  C   UNL     1       5.055 -11.643  25.988  0.00  0.00    -0.000 C 
ATOM     20  C   UNL     1       4.836 -12.981  26.216  0.00  0.00    -0.011 C 
ATOM     21  C   UNL     1       3.549 -13.361  26.530  0.00  0.00    -0.004 C 
ATOM     22  C   UNL     1       2.531 -12.404  26.604  0.00  0.00    +0.003 C 
ATOM     23  C   UNL     1       4.296  -9.278  25.816  0.00  0.00    +0.199 C 
ATOM     24  O   UNL     1       5.479  -8.932  25.528  0.00  0.00    -0.286 OA
BRANCH  20  25
ATOM     25  C   UNL     1       5.938 -13.941  26.127  0.00  0.00    +0.127 C 
ATOM     26  C   UNL     1       7.117 -13.763  27.007  0.00  0.00    +0.136 C 
ATOM     27  S   UNL     1       7.131 -12.235  28.032  0.00  0.00    -0.119 S 
ATOM     28  C   UNL     1       8.701 -11.534  27.372  0.00  0.00    +0.081 C 
ATOM     29  C   UNL     1       9.110 -12.649  26.427  0.00  0.00    +0.106 C 
ATOM     30  N   UNL     1       7.918 -13.253  25.901  0.00  0.00    -0.270 N 
ATOM     31  C   UNL     1       6.917 -13.729  25.028  0.00  0.00    +0.232 C 
ATOM     32  O   UNL     1       6.777 -13.942  23.776  0.00  0.00    -0.274 OA
ENDBRANCH  20  25
BRANCH  14  33
ATOM     33  O   UNL     1       0.960  -7.703  26.266  0.00  0.00    -0.503 OA
ATOM     34  H   UNL     1       1.108  -6.791  26.110  0.00  0.00    +0.292 HD
ENDBRANCH  14  33
ENDBRANCH   2  13
BRANCH   6  35
ATOM     35  S   UNL     1       4.066  -4.119  22.734  0.00  0.00    -0.071 S 
ATOM     36  C   UNL     1       3.393  -3.314  21.486  0.00  0.00    +0.146 C 
ATOM     37  C   UNL     1       4.252  -3.621  20.278  0.00  0.00    +0.240 C 
ATOM     38  O   UNL     1       3.851  -3.877  19.094  0.00  0.00    -0.274 OA
ATOM     39  N   UNL     1       5.593  -3.582  20.669  0.00  0.00    -0.246 N 
ATOM     40  C   UNL     1       5.882  -4.086  21.920  0.00  0.00    +0.274 C 
ATOM     41  O   UNL     1       6.827  -4.448  22.530  0.00  0.00    -0.263 OA
ATOM     42  H   UNL     1       6.294  -3.215  20.083  0.00  0.00    +0.158 HD
ENDBRANCH   6  35
BRANCH   1  43
ATOM     43  N   UNL     1       3.305  -7.194  23.312  0.00  0.00    -0.307 N 
ATOM     44  C   UNL     1       3.797  -8.221  22.486  0.00  0.00    +0.093 C 
ATOM     45  C   UNL     1       2.563  -8.181  21.633  0.00  0.00    +0.043 C 
ATOM     46  C   UNL     1       1.967  -7.405  22.748  0.00  0.00    +0.093 C 
ENDBRANCH   1  43
TORSDOF 5
REMARK  Name = =
REMARK  5 active torsions:
REMARK  status: ('A' for Active; 'I' for Inactive)
REMARK    1  A    between atoms: C_1  and  N_41
REMARK    2  A    between atoms: C_2  and  C_12
REMARK    3  A    between atoms: C_6  and  S_33
REMARK    4  A    between atoms: C_13  and  O_32
REMARK    5  A    between atoms: C_19  and  C_24
REMARK                            x       y       z     vdW  Elec       q    Type
REMARK                         _______ _______ _______ _____ _____    ______ ____
ROOT
ATOM      1  H   UNK     1       3.700  -5.916  21.501  0.00  0.00    +0.000 HD
ENDROOT
TORSDOF 0
