REMARK  Name = =
REMARK  0 active torsions:
REMARK  status: ('A' for Active; 'I' for Inactive)
REMARK                            x       y       z     vdW  Elec       q    Type
REMARK                         _______ _______ _______ _____ _____    ______ ____
ROOT
ATOM      1  C   UNL     1      52.557 155.957  27.719  0.00  0.00    +0.019 C 
ATOM      2  C   UNL     1      53.221 155.419  26.641  0.00  0.00    +0.099 C 
ATOM      3  N   UNL     1      52.947 154.163  26.288  0.00  0.00    -0.242 NA
ATOM      4  C   UNL     1      52.061 153.363  26.906  0.00  0.00    +0.099 C 
ATOM      5  C   UNL     1      51.389 153.888  27.989  0.00  0.00    +0.021 C 
ATOM      6  C   UNL     1      51.637 155.200  28.403  0.00  0.00    +0.003 C 
ATOM      7  C   UNL     1      50.966 155.737  29.490  0.00  0.00    +0.000 C 
ATOM      8  C   UNL     1      51.220 157.033  29.889  0.00  0.00    +0.000 C 
ATOM      9  C   UNL     1      52.137 157.821  29.224  0.00  0.00    +0.000 C 
ATOM     10  C   UNL     1      52.781 157.245  28.149  0.00  0.00    +0.002 C 
ENDROOT
TORSDOF 0
