REMARK  Name = =
REMARK  3 active torsions:
REMARK  status: ('A' for Active; 'I' for Inactive)
REMARK    1  A    between atoms: C_2  and  S_11
REMARK    2  A    between atoms: S_11  and  N_14
REMARK    3  A    between atoms: C_15  and  O_17
REMARK                            x       y       z     vdW  Elec       q    Type
REMARK                         _______ _______ _______ _____ _____    ______ ____
ROOT
ATOM      1  C   UNL     1      52.436 155.518  27.634  0.00  0.00    +0.037 C 
ATOM      2  C   UNL     1      52.744 154.547  26.690  0.00  0.00    +0.206 C 
ATOM      3  N   UNL     1      52.306 153.306  26.968  0.00  0.00    -0.224 NA
ATOM      4  C   UNL     1      51.616 152.955  28.052  0.00  0.00    +0.100 C 
ATOM      5  C   UNL     1      51.289 153.886  29.012  0.00  0.00    +0.021 C 
ATOM      6  C   UNL     1      51.724 155.195  28.770  0.00  0.00    +0.004 C 
ATOM      7  C   UNL     1      51.416 156.165  29.719  0.00  0.00    +0.000 C 
ATOM      8  C   UNL     1      51.843 157.452  29.495  0.00  0.00    +0.000 C 
ATOM      9  C   UNL     1      52.551 157.767  28.366  0.00  0.00    +0.000 C 
ATOM     10  C   UNL     1      52.866 156.805  27.404  0.00  0.00    +0.003 C 
ENDROOT
BRANCH   2  11
ATOM     11  S   UNL     1      53.616 154.835  25.222  0.00  0.00    +0.095 S 
ATOM     12  O   UNL     1      52.879 154.046  24.129  0.00  0.00    -0.148 OA
ATOM     13  O   UNL     1      53.500 156.263  24.746  0.00  0.00    -0.148 OA
BRANCH  11  14
ATOM     14  N   UNL     1      55.207 154.257  25.218  0.00  0.00    -0.150 N 
ATOM     15  C   UNL     1      55.529 152.888  25.371  0.00  0.00    +0.417 C 
ATOM     16  O   UNL     1      54.616 152.003  25.521  0.00  0.00    -0.225 OA
ATOM     17  H   UNL     1      55.941 154.903  25.104  0.00  0.00    +0.180 HD
BRANCH  15  18
ATOM     18  O   UNL     1      56.831 152.403  25.369  0.00  0.00    -0.465 OA
ATOM     19  H   UNL     1      57.551 152.994  25.264  0.00  0.00    +0.297 HD
ENDBRANCH  15  18
ENDBRANCH  11  14
ENDBRANCH   2  11
TORSDOF 3
