REMARK  Name = =
REMARK  5 active torsions:
REMARK  status: ('A' for Active; 'I' for Inactive)
REMARK    1  A    between atoms: S_1  and  C_5
REMARK    2  A    between atoms: S_1  and  N_14
REMARK    3  A    between atoms: N_14  and  C_18
REMARK    4  A    between atoms: C_15  and  O_17
REMARK    5  A    between atoms: C_19  and  C_20
REMARK                            x       y       z     vdW  Elec       q    Type
REMARK                         _______ _______ _______ _____ _____    ______ ____
ROOT
ATOM      1  S   UNL     1      54.371 154.085  26.033  0.00  0.00    +0.102 S 
ATOM      2  O   UNL     1      55.054 155.405  26.274  0.00  0.00    -0.148 OA
ATOM      3  O   UNL     1      55.489 153.055  26.244  0.00  0.00    -0.148 OA
ENDROOT
BRANCH   1   5
ATOM      4  C   UNL     1      52.526 154.665  27.956  0.00  0.00    +0.037 C 
ATOM      5  C   UNL     1      53.120 153.702  27.140  0.00  0.00    +0.207 C 
ATOM      6  N   UNL     1      52.695 152.432  27.256  0.00  0.00    -0.224 NA
ATOM      7  C   UNL     1      51.750 152.033  28.093  0.00  0.00    +0.100 C 
ATOM      8  C   UNL     1      51.125 152.930  28.924  0.00  0.00    +0.021 C 
ATOM      9  C   UNL     1      51.539 154.270  28.835  0.00  0.00    +0.004 C 
ATOM     10  C   UNL     1      50.938 155.195  29.649  0.00  0.00    +0.000 C 
ATOM     11  C   UNL     1      51.290 156.529  29.615  0.00  0.00    +0.000 C 
ATOM     12  C   UNL     1      52.280 156.890  28.723  0.00  0.00    +0.000 C 
ATOM     13  C   UNL     1      52.889 155.980  27.908  0.00  0.00    +0.003 C 
ENDBRANCH   1   5
BRANCH   1  14
ATOM     14  N   UNL     1      53.937 153.938  24.375  0.00  0.00    -0.100 N 
ATOM     15  C   UNL     1      53.880 152.650  23.819  0.00  0.00    +0.425 C 
ATOM     16  O   UNL     1      54.133 151.614  24.482  0.00  0.00    -0.224 OA
BRANCH  15  17
ATOM     17  O   UNL     1      53.534 152.483  22.492  0.00  0.00    -0.465 OA
ATOM     18  H   UNL     1      53.337 153.230  21.962  0.00  0.00    +0.297 HD
ENDBRANCH  15  17
BRANCH  14  19
ATOM     19  C   UNL     1      53.637 155.060  23.560  0.00  0.00    +0.106 C 
ATOM     20  C   UNL     1      54.366 155.286  22.490  0.00  0.00    +0.096 C 
BRANCH  20  21
ATOM     21  C   UNL     1      55.462 154.488  22.057  0.00  0.00    +0.102 C 
ATOM     22  N   UNL     1      56.362 153.825  21.688  0.00  0.00    -0.191 NA
ENDBRANCH  20  21
ENDBRANCH  14  19
ENDBRANCH   1  14
TORSDOF 5
