REMARK  Name = =
REMARK  10 active torsions:
REMARK  status: ('A' for Active; 'I' for Inactive)
REMARK    1  A    between atoms: N_1  and  S_4
REMARK    2  A    between atoms: N_1  and  C_18
REMARK    3  A    between atoms: C_2  and  O_17
REMARK    4  A    between atoms: S_4  and  C_8
REMARK    5  A    between atoms: C_18  and  N_22
REMARK    6  A    between atoms: C_19  and  C_20
REMARK    7  A    between atoms: N_22  and  S_23
REMARK    8  A    between atoms: N_22  and  O_26
REMARK    9  A    between atoms: O_26  and  C_27
REMARK   10  A    between atoms: C_27  and  O_29
REMARK                            x       y       z     vdW  Elec       q    Type
REMARK                         _______ _______ _______ _____ _____    ______ ____
ROOT
ATOM      1  N   UNL     1      53.752 152.181  26.429  0.00  0.00    -0.081 N 
ATOM      2  C   UNL     1      55.123 152.536  26.699  0.00  0.00    +0.426 C 
ATOM      3  O   UNL     1      55.367 153.320  27.634  0.00  0.00    -0.224 OA
ENDROOT
BRANCH   1   4
ATOM      4  S   UNL     1      52.570 152.883  27.459  0.00  0.00    +0.103 S 
ATOM      5  O   UNL     1      52.758 152.192  28.840  0.00  0.00    -0.148 OA
ATOM      6  O   UNL     1      51.213 152.441  27.039  0.00  0.00    -0.148 OA
BRANCH   4   8
ATOM      7  C   UNL     1      53.086 155.507  26.831  0.00  0.00    +0.037 C 
ATOM      8  C   UNL     1      52.772 154.562  27.773  0.00  0.00    +0.207 C 
ATOM      9  N   UNL     1      52.641 155.018  29.069  0.00  0.00    -0.224 NA
ATOM     10  C   UNL     1      52.806 156.296  29.414  0.00  0.00    +0.100 C 
ATOM     11  C   UNL     1      53.122 157.260  28.486  0.00  0.00    +0.021 C 
ATOM     12  C   UNL     1      53.261 156.854  27.182  0.00  0.00    +0.004 C 
ATOM     13  C   UNL     1      53.566 157.823  26.250  0.00  0.00    +0.000 C 
ATOM     14  C   UNL     1      53.695 157.426  24.938  0.00  0.00    +0.000 C 
ATOM     15  C   UNL     1      53.528 156.112  24.554  0.00  0.00    +0.000 C 
ATOM     16  C   UNL     1      53.222 155.146  25.504  0.00  0.00    +0.003 C 
ENDBRANCH   4   8
ENDBRANCH   1   4
BRANCH   2  17
ATOM     17  O   UNL     1      56.135 152.014  25.933  0.00  0.00    -0.465 OA
ATOM     18  H   UNL     1      55.936 151.425  25.232  0.00  0.00    +0.297 HD
ENDBRANCH   2  17
BRANCH   1  19
ATOM     19  C   UNL     1      53.550 151.350  25.328  0.00  0.00    +0.208 C 
ATOM     20  C   UNL     1      54.010 151.719  24.156  0.00  0.00    +0.117 C 
BRANCH  20  21
ATOM     21  C   UNL     1      54.705 152.961  24.022  0.00  0.00    +0.104 C 
ATOM     22  N   UNL     1      55.249 153.969  23.907  0.00  0.00    -0.191 NA
ENDBRANCH  20  21
BRANCH  19  23
ATOM     23  N   UNL     1      52.935 150.092  25.436  0.00  0.00    -0.053 N 
BRANCH  23  24
ATOM     24  S   UNL     1      53.873 148.719  24.896  0.00  0.00    +0.073 S 
ATOM     25  O   UNL     1      52.906 147.583  24.640  0.00  0.00    -0.153 OA
ATOM     26  O   UNL     1      54.642 149.039  23.669  0.00  0.00    -0.153 OA
ATOM     27  H   UNL     1      54.781 148.372  25.847  0.00  0.00    +0.239 HD
ENDBRANCH  23  24
BRANCH  23  28
ATOM     28  O   UNL     1      51.678 149.911  25.922  0.00  0.00    -0.282 OA
BRANCH  28  29
ATOM     29  C   UNL     1      51.489 149.658  27.269  0.00  0.00    +0.534 C 
ATOM     30  O   UNL     1      52.413 149.033  27.888  0.00  0.00    -0.201 OA
BRANCH  29  31
ATOM     31  O   UNL     1      50.385 150.027  27.997  0.00  0.00    -0.448 OA
ATOM     32  H   UNL     1      50.333 149.817  28.909  0.00  0.00    +0.299 HD
ENDBRANCH  29  31
ENDBRANCH  28  29
ENDBRANCH  23  28
ENDBRANCH  19  23
ENDBRANCH   1  19
TORSDOF 10
