REMARK  Name = =
REMARK  14 active torsions:
REMARK  status: ('A' for Active; 'I' for Inactive)
REMARK    1  A    between atoms: C_1  and  N_3
REMARK    2  A    between atoms: C_1  and  N_22
REMARK    3  A    between atoms: C_2  and  C_20
REMARK    4  A    between atoms: N_3  and  S_6
REMARK    5  A    between atoms: C_4  and  O_19
REMARK    6  A    between atoms: S_6  and  C_10
REMARK    7  A    between atoms: N_22  and  S_23
REMARK    8  A    between atoms: N_22  and  O_26
REMARK    9  A    between atoms: O_26  and  C_27
REMARK   10  A    between atoms: C_27  and  O_29
REMARK   11  A    between atoms: O_29  and  N_30
REMARK   12  A    between atoms: N_30  and  O_33
REMARK   13  A    between atoms: O_33  and  C_34
REMARK   14  A    between atoms: C_34  and  O_36
REMARK                            x       y       z     vdW  Elec       q    Type
REMARK                         _______ _______ _______ _____ _____    ______ ____
ROOT
ATOM      1  C   UNL     1      53.412 154.418  28.192  0.00  0.00    +0.208 C 
ATOM      2  C   UNL     1      53.979 154.731  27.070  0.00  0.00    +0.117 C 
ENDROOT
BRANCH   1   3
ATOM      3  N   UNL     1      52.515 155.230  28.909  0.00  0.00    -0.081 N 
ATOM      4  C   UNL     1      51.742 154.630  29.993  0.00  0.00    +0.426 C 
ATOM      5  O   UNL     1      50.950 155.370  30.605  0.00  0.00    -0.224 OA
BRANCH   3   6
ATOM      6  S   UNL     1      52.276 156.887  28.574  0.00  0.00    +0.103 S 
ATOM      7  O   UNL     1      53.504 157.682  28.718  0.00  0.00    -0.148 OA
ATOM      8  O   UNL     1      51.867 156.901  27.067  0.00  0.00    -0.148 OA
BRANCH   6  10
ATOM      9  C   UNL     1      50.959 158.711  30.107  0.00  0.00    +0.037 C 
ATOM     10  C   UNL     1      50.881 157.530  29.417  0.00  0.00    +0.207 C 
ATOM     11  N   UNL     1      49.696 156.879  29.388  0.00  0.00    -0.224 NA
ATOM     12  C   UNL     1      48.612 157.364  30.012  0.00  0.00    +0.100 C 
ATOM     13  C   UNL     1      48.660 158.546  30.709  0.00  0.00    +0.021 C 
ATOM     14  C   UNL     1      49.863 159.257  30.770  0.00  0.00    +0.004 C 
ATOM     15  C   UNL     1      49.930 160.442  31.471  0.00  0.00    +0.000 C 
ATOM     16  C   UNL     1      51.102 161.155  31.549  0.00  0.00    +0.000 C 
ATOM     17  C   UNL     1      52.205 160.648  30.908  0.00  0.00    +0.000 C 
ATOM     18  C   UNL     1      52.130 159.464  30.211  0.00  0.00    +0.003 C 
ENDBRANCH   6  10
ENDBRANCH   3   6
BRANCH   4  19
ATOM     19  O   UNL     1      51.852 153.311  30.353  0.00  0.00    -0.465 OA
ATOM     20  H   UNL     1      52.446 152.749  29.896  0.00  0.00    +0.297 HD
ENDBRANCH   4  19
ENDBRANCH   1   3
BRANCH   2  21
ATOM     21  C   UNL     1      54.901 153.793  26.416  0.00  0.00    +0.104 C 
ATOM     22  N   UNL     1      55.626 153.052  25.923  0.00  0.00    -0.191 NA
ENDBRANCH   2  21
BRANCH   1  23
ATOM     23  N   UNL     1      53.728 153.098  28.766  0.00  0.00    -0.053 N 
BRANCH  23  24
ATOM     24  S   UNL     1      54.974 153.029  29.921  0.00  0.00    +0.073 S 
ATOM     25  O   UNL     1      55.076 151.651  30.552  0.00  0.00    -0.153 OA
ATOM     26  O   UNL     1      56.306 153.439  29.361  0.00  0.00    -0.153 OA
ATOM     27  H   UNL     1      54.639 153.928  30.885  0.00  0.00    +0.239 HD
ENDBRANCH  23  24
BRANCH  23  28
ATOM     28  O   UNL     1      53.060 151.988  28.387  0.00  0.00    -0.281 OA
BRANCH  28  29
ATOM     29  C   UNL     1      52.150 151.991  27.336  0.00  0.00    +0.562 C 
ATOM     30  O   UNL     1      50.992 152.406  27.608  0.00  0.00    -0.199 OA
BRANCH  29  31
ATOM     31  O   UNL     1      52.413 151.587  26.058  0.00  0.00    -0.274 OA
BRANCH  31  32
ATOM     32  N   UNL     1      52.765 152.465  25.041  0.00  0.00    +0.064 N 
ATOM     33  C   UNL     1      52.118 153.740  25.035  0.00  0.00    +0.379 C 
ATOM     34  O   UNL     1      52.364 154.608  24.157  0.00  0.00    -0.258 OA
BRANCH  32  35
ATOM     35  O   UNL     1      53.673 152.157  24.088  0.00  0.00    -0.275 OA
BRANCH  35  36
ATOM     36  C   UNL     1      54.123 153.144  23.221  0.00  0.00    +0.533 C 
ATOM     37  O   UNL     1      54.974 153.984  23.636  0.00  0.00    -0.201 OA
BRANCH  36  38
ATOM     38  O   UNL     1      53.656 153.228  21.903  0.00  0.00    -0.448 OA
ATOM     39  H   UNL     1      53.026 152.610  21.589  0.00  0.00    +0.299 HD
ENDBRANCH  36  38
ENDBRANCH  35  36
ENDBRANCH  32  35
ENDBRANCH  31  32
ENDBRANCH  29  31
ENDBRANCH  28  29
ENDBRANCH  23  28
ENDBRANCH   1  23
TORSDOF 14
