MODEL 1
REMARK VINA RESULT:    -9.384      0.000      0.000
REMARK INTER + INTRA:         -15.215
REMARK INTER:                 -13.499
REMARK INTRA:                  -1.716
REMARK UNBOUND:                -1.716
REMARK  Name = =
REMARK  11 active torsions:
REMARK  status: ('A' for Active; 'I' for Inactive)
REMARK    1  A    between atoms: S_1  and  C_7
REMARK    2  A    between atoms: S_1  and  C_18
REMARK    3  A    between atoms: S_1  and  O_29
REMARK    4  A    between atoms: C_6  and  S_38
REMARK    5  A    between atoms: C_22  and  O_25
REMARK    6  A    between atoms: O_25  and  C_26
REMARK    7  A    between atoms: C_26  and  O_28
REMARK    8  A    between atoms: O_29  and  C_30
REMARK    9  A    between atoms: C_33  and  C_36
REMARK   10  A    between atoms: S_38  and  C_39
REMARK   11  A    between atoms: C_39  and  N_41
REMARK                            x       y       z     vdW  Elec       q    Type
REMARK                         _______ _______ _______ _____ _____    ______ ____
ROOT
ATOM      1  S   UNL     1      -0.428  -6.709  30.207  0.00  0.00    -0.055 S 
ATOM      2  C   UNL     1      -1.336  -7.880  31.127  0.00  0.00    +0.253 C 
ATOM      3  F   UNL     1      -2.600  -8.483  30.562  0.00  0.00    -0.176 F 
ATOM      4  N   UNL     1      -1.231  -8.412  32.166  0.00  0.00    -0.210 NA
ATOM      5  C   UNL     1      -0.088  -7.935  32.676  0.00  0.00    +0.115 C 
ATOM      6  C   UNL     1       0.412  -7.161  31.907  0.00  0.00    +0.082 C 
ATOM      7  H   UNL     1      -0.410  -8.053  29.999  0.00  0.00    +0.119 HD
ENDROOT
BRANCH   1   8
ATOM      8  C   UNL     1       0.057  -7.955  28.703  0.00  0.00    +0.032 C 
ATOM      9  C   UNL     1      -0.860  -8.236  27.765  0.00  0.00    +0.008 C 
ATOM     10  C   UNL     1      -0.537  -8.966  26.595  0.00  0.00    +0.015 C 
ATOM     11  C   UNL     1       0.761  -9.355  26.502  0.00  0.00    +0.051 C 
ATOM     12  C   UNL     1       1.751  -9.106  27.422  0.00  0.00    +0.053 C 
ATOM     13  C   UNL     1       1.323  -8.368  28.556  0.00  0.00    +0.011 C 
ATOM     14  C   UNL     1       3.048  -9.481  27.346  0.00  0.00    +0.198 C 
ATOM     15  O   UNL     1       3.913  -9.225  28.222  0.00  0.00    -0.286 OA
ATOM     16  C   UNL     1       3.431 -10.208  26.204  0.00  0.00    +0.058 C 
ATOM     17  C   UNL     1       2.447 -10.463  25.274  0.00  0.00    +0.065 C 
ATOM     18  N   UNL     1       1.170 -10.063  25.404  0.00  0.00    -0.311 N 
ATOM     19  H   UNL     1       0.519 -10.283  24.698  0.00  0.00    +0.152 HD
ENDBRANCH   1   8
BRANCH   1  20
ATOM     20  C   UNL     1      -1.989  -5.578  29.922  0.00  0.00    +0.120 C 
ATOM     21  C   UNL     1      -2.385  -5.047  31.232  0.00  0.00    +0.019 C 
ATOM     22  C   UNL     1      -3.860  -4.680  31.065  0.00  0.00    +0.006 C 
ATOM     23  C   UNL     1      -4.053  -3.688  29.953  0.00  0.00    +0.052 C 
ATOM     24  C   UNL     1      -2.630  -3.213  29.542  0.00  0.00    +0.230 C 
ATOM     25  C   UNL     1      -1.959  -4.446  29.112  0.00  0.00    +0.201 C 
ATOM     26  O   UNL     1      -1.355  -4.513  28.025  0.00  0.00    -0.291 OA
BRANCH  24  27
ATOM     27  O   UNL     1      -2.751  -2.391  28.412  0.00  0.00    -0.414 OA
BRANCH  27  28
ATOM     28  C   UNL     1      -2.146  -1.174  28.367  0.00  0.00    +0.509 C 
ATOM     29  O   UNL     1      -1.139  -1.015  27.637  0.00  0.00    -0.203 OA
BRANCH  28  30
ATOM     30  O   UNL     1      -2.594  -0.084  29.101  0.00  0.00    -0.450 OA
ATOM     31  H   UNL     1      -3.506   0.133  29.109  0.00  0.00    +0.299 HD
ENDBRANCH  28  30
ENDBRANCH  27  28
ENDBRANCH  24  27
ENDBRANCH   1  20
BRANCH   1  32
ATOM     32  O   UNL     1       0.975  -5.339  30.577  0.00  0.00    -0.449 OA
BRANCH  32  33
ATOM     33  C   UNL     1       1.658  -4.592  29.769  0.00  0.00    +0.152 C 
ATOM     34  C   UNL     1       1.260  -3.274  29.545  0.00  0.00    +0.038 C 
ATOM     35  C   UNL     1       1.904  -2.403  28.715  0.00  0.00    +0.006 C 
ATOM     36  C   UNL     1       3.021  -2.879  28.065  0.00  0.00    +0.042 C 
ATOM     37  C   UNL     1       3.462  -4.162  28.244  0.00  0.00    +0.006 C 
ATOM     38  C   UNL     1       2.777  -5.020  29.100  0.00  0.00    +0.038 C 
BRANCH  36  39
ATOM     39  C   UNL     1       3.747  -1.990  27.167  0.00  0.00    +0.234 C 
ATOM     40  O   UNL     1       3.137  -1.118  26.479  0.00  0.00    -0.283 OA
ENDBRANCH  36  39
ENDBRANCH  32  33
ENDBRANCH   1  32
BRANCH   6  41
ATOM     41  S   UNL     1       2.169  -6.543  32.289  0.00  0.00    -0.057 S 
BRANCH  41  42
ATOM     42  C   UNL     1       2.171  -5.640  33.731  0.00  0.00    +0.109 C 
ATOM     43  S   UNL     1       3.092  -4.377  34.110  0.00  0.00    -0.028 S 
BRANCH  42  44
ATOM     44  N   UNL     1       1.190  -6.003  34.755  0.00  0.00    -0.347 N 
ATOM     45  H   UNL     1       0.281  -6.275  34.491  0.00  0.00    +0.143 HD
ATOM     46  H   UNL     1       1.438  -5.975  35.707  0.00  0.00    +0.143 HD
ENDBRANCH  42  44
ENDBRANCH  41  42
ENDBRANCH   6  41
TORSDOF 11
ENDMDL
