MODEL 1
REMARK VINA RESULT:    -5.764      0.000      0.000
REMARK INTER + INTRA:         -12.216
REMARK INTER:                  -9.302
REMARK INTRA:                  -2.914
REMARK UNBOUND:                -2.914
REMARK  Name = =
REMARK  13 active torsions:
REMARK  status: ('A' for Active; 'I' for Inactive)
REMARK    1  A    between atoms: P_1  and  O_3
REMARK    2  A    between atoms: P_1  and  O_4
REMARK    3  A    between atoms: P_1  and  O_22
REMARK    4  A    between atoms: O_4  and  C_5
REMARK    5  A    between atoms: O_22  and  P_23
REMARK    6  A    between atoms: P_23  and  O_25
REMARK    7  A    between atoms: P_23  and  O_26
REMARK    8  A    between atoms: O_26  and  P_27
REMARK    9  A    between atoms: P_27  and  O_29
REMARK   10  A    between atoms: P_27  and  O_30
REMARK   11  A    between atoms: O_30  and  P_31
REMARK   12  A    between atoms: P_31  and  O_33
REMARK   13  A    between atoms: P_31  and  O_34
REMARK                            x       y       z     vdW  Elec       q    Type
REMARK                         _______ _______ _______ _____ _____    ______ ____
ROOT
ATOM      1  P   UNL     1      62.892 164.089  38.845  0.00  0.00    +0.485 P 
ATOM      2  O   UNL     1      63.809 164.161  40.060  0.00  0.00    -0.227 OA
ENDROOT
BRANCH   1   3
ATOM      3  O   UNL     1      61.882 165.424  38.873  0.00  0.00    -0.302 OA
ATOM      4  H   UNL     1      61.900 165.826  39.757  0.00  0.00    +0.222 HD
ENDBRANCH   1   3
BRANCH   1   5
ATOM      5  O   UNL     1      62.137 162.631  38.649  0.00  0.00    -0.261 OA
BRANCH   5   6
ATOM      6  C   UNL     1      61.082 162.365  39.520  0.00  0.00    +0.177 C 
ATOM      7  C   UNL     1      61.254 160.970  40.005  0.00  0.00    +0.185 C 
ATOM      8  C   UNL     1      60.078 160.057  39.768  0.00  0.00    +0.175 C 
ATOM      9  O   UNL     1      60.346 158.815  40.371  0.00  0.00    -0.351 OA
ATOM     10  C   UNL     1      59.099 158.355  40.860  0.00  0.00    +0.142 C 
ATOM     11  C   UNL     1      58.670 159.079  42.092  0.00  0.00    +0.032 C 
ATOM     12  C   UNL     1      57.275 159.640  42.044  0.00  0.00    +0.003 C 
ATOM     13  C   UNL     1      57.135 160.851  42.969  0.00  0.00    +0.000 C 
ATOM     14  C   UNL     1      56.155 161.814  42.384  0.00  0.00    +0.000 C 
ATOM     15  C   UNL     1      56.767 163.136  41.965  0.00  0.00    +0.000 C 
ATOM     16  C   UNL     1      57.891 162.913  41.000  0.00  0.00    +0.000 C 
ATOM     17  C   UNL     1      58.449 164.148  40.403  0.00  0.00    +0.000 C 
ATOM     18  C   UNL     1      59.177 163.987  39.129  0.00  0.00    +0.004 C 
ATOM     19  C   UNL     1      59.764 162.643  38.832  0.00  0.00    +0.046 C 
ATOM     20  O   UNL     1      61.624 160.978  41.330  0.00  0.00    -0.333 OA
ATOM     21  C   UNL     1      61.668 162.281  41.759  0.00  0.00    +0.218 C 
ATOM     22  N   UNL     1      61.266 163.145  40.700  0.00  0.00    -0.250 NA
ATOM     23  H   UNL     1      60.390 163.607  40.946  0.00  0.00    +0.128 HD
ENDBRANCH   5   6
ENDBRANCH   1   5
BRANCH   1  24
ATOM     24  O   UNL     1      63.944 164.298  37.510  0.00  0.00    -0.186 OA
BRANCH  24  25
ATOM     25  P   UNL     1      63.173 165.146  36.270  0.00  0.00    +0.492 P 
ATOM     26  O   UNL     1      63.972 165.096  34.976  0.00  0.00    -0.226 OA
BRANCH  25  27
ATOM     27  O   UNL     1      62.932 166.755  36.726  0.00  0.00    -0.302 OA
ATOM     28  H   UNL     1      63.780 167.226  36.706  0.00  0.00    +0.222 HD
ENDBRANCH  25  27
BRANCH  25  29
ATOM     29  O   UNL     1      61.650 164.442  36.053  0.00  0.00    -0.186 OA
BRANCH  29  30
ATOM     30  P   UNL     1      60.602 165.592  35.444  0.00  0.00    +0.492 P 
ATOM     31  O   UNL     1      59.448 164.915  34.743  0.00  0.00    -0.226 OA
BRANCH  30  32
ATOM     32  O   UNL     1      59.946 166.532  36.710  0.00  0.00    -0.302 OA
ATOM     33  H   UNL     1      60.665 166.956  37.205  0.00  0.00    +0.222 HD
ENDBRANCH  30  32
BRANCH  30  34
ATOM     34  O   UNL     1      61.351 166.620  34.331  0.00  0.00    -0.186 OA
BRANCH  34  35
ATOM     35  P   UNL     1      60.588 168.126  34.278  0.00  0.00    +0.481 P 
ATOM     36  O   UNL     1      60.988 168.901  35.511  0.00  0.00    -0.227 OA
BRANCH  35  37
ATOM     37  O   UNL     1      58.898 167.967  34.241  0.00  0.00    -0.302 OA
ATOM     38  H   UNL     1      58.573 167.757  35.131  0.00  0.00    +0.222 HD
ENDBRANCH  35  37
BRANCH  35  39
ATOM     39  O   UNL     1      61.151 168.976  32.938  0.00  0.00    -0.302 OA
ATOM     40  H   UNL     1      61.031 168.437  32.140  0.00  0.00    +0.222 HD
ENDBRANCH  35  39
ENDBRANCH  34  35
ENDBRANCH  30  34
ENDBRANCH  29  30
ENDBRANCH  25  29
ENDBRANCH  24  25
ENDBRANCH   1  24
TORSDOF 13
ENDMDL
