REMARK  Name = =
REMARK  13 active torsions:
REMARK  status: ('A' for Active; 'I' for Inactive)
REMARK    1  A    between atoms: P_1  and  O_3
REMARK    2  A    between atoms: P_1  and  O_4
REMARK    3  A    between atoms: P_1  and  O_22
REMARK    4  A    between atoms: O_4  and  C_5
REMARK    5  A    between atoms: O_22  and  P_23
REMARK    6  A    between atoms: P_23  and  O_25
REMARK    7  A    between atoms: P_23  and  O_26
REMARK    8  A    between atoms: O_26  and  P_27
REMARK    9  A    between atoms: P_27  and  O_29
REMARK   10  A    between atoms: P_27  and  O_30
REMARK   11  A    between atoms: O_30  and  P_31
REMARK   12  A    between atoms: P_31  and  O_33
REMARK   13  A    between atoms: P_31  and  O_34
REMARK                            x       y       z     vdW  Elec       q    Type
REMARK                         _______ _______ _______ _____ _____    ______ ____
ROOT
ATOM      1  P   UNL     1      58.338 164.788  40.946  0.00  0.00    +0.485 P 
ATOM      2  O   UNL     1      58.296 163.587  41.882  0.00  0.00    -0.227 OA
ENDROOT
BRANCH   1   3
ATOM      3  O   UNL     1      58.598 166.161  41.870  0.00  0.00    -0.302 OA
ATOM      4  H   UNL     1      57.816 166.336  42.417  0.00  0.00    +0.222 HD
ENDBRANCH   1   3
BRANCH   1   5
ATOM      5  O   UNL     1      57.068 164.873  39.891  0.00  0.00    -0.261 OA
BRANCH   5   6
ATOM      6  C   UNL     1      55.796 164.818  40.456  0.00  0.00    +0.177 C 
ATOM      7  C   UNL     1      55.703 163.538  41.207  0.00  0.00    +0.185 C 
ATOM      8  C   UNL     1      54.560 162.640  40.808  0.00  0.00    +0.175 C 
ATOM      9  O   UNL     1      54.541 161.529  41.671  0.00  0.00    -0.351 OA
ATOM     10  C   UNL     1      53.172 161.217  41.855  0.00  0.00    +0.142 C 
ATOM     11  C   UNL     1      52.488 162.181  42.766  0.00  0.00    +0.032 C 
ATOM     12  C   UNL     1      51.215 162.772  42.223  0.00  0.00    +0.003 C 
ATOM     13  C   UNL     1      50.935 164.143  42.841  0.00  0.00    +0.000 C 
ATOM     14  C   UNL     1      50.243 165.009  41.841  0.00  0.00    +0.000 C 
ATOM     15  C   UNL     1      51.062 166.202  41.389  0.00  0.00    +0.000 C 
ATOM     16  C   UNL     1      52.383 165.757  40.841  0.00  0.00    +0.000 C 
ATOM     17  C   UNL     1      53.191 166.832  40.221  0.00  0.00    +0.000 C 
ATOM     18  C   UNL     1      54.223 166.401  39.258  0.00  0.00    +0.004 C 
ATOM     19  C   UNL     1      54.747 165.005  39.382  0.00  0.00    +0.046 C 
ATOM     20  O   UNL     1      55.694 163.790  42.560  0.00  0.00    -0.333 OA
ATOM     21  C   UNL     1      55.735 165.149  42.748  0.00  0.00    +0.218 C 
ATOM     22  N   UNL     1      55.718 165.805  41.483  0.00  0.00    -0.250 NA
ATOM     23  H   UNL     1      54.853 166.337  41.383  0.00  0.00    +0.128 HD
ENDBRANCH   5   6
ENDBRANCH   1   5
BRANCH   1  24
ATOM     24  O   UNL     1      59.755 164.548  40.015  0.00  0.00    -0.186 OA
BRANCH  24  25
ATOM     25  P   UNL     1      60.083 165.906  39.067  0.00  0.00    +0.492 P 
ATOM     26  O   UNL     1      59.717 167.195  39.789  0.00  0.00    -0.226 OA
BRANCH  25  27
ATOM     27  O   UNL     1      59.238 165.816  37.607  0.00  0.00    -0.302 OA
ATOM     28  H   UNL     1      58.284 165.830  37.784  0.00  0.00    +0.222 HD
ENDBRANCH  25  27
BRANCH  25  29
ATOM     29  O   UNL     1      61.735 165.878  38.705  0.00  0.00    -0.186 OA
BRANCH  29  30
ATOM     30  P   UNL     1      61.971 164.984  37.314  0.00  0.00    +0.492 P 
ATOM     31  O   UNL     1      61.103 163.748  37.345  0.00  0.00    -0.226 OA
BRANCH  30  32
ATOM     32  O   UNL     1      61.517 165.889  35.938  0.00  0.00    -0.302 OA
ATOM     33  H   UNL     1      60.597 166.181  36.032  0.00  0.00    +0.222 HD
ENDBRANCH  30  32
BRANCH  30  34
ATOM     34  O   UNL     1      63.575 164.484  37.134  0.00  0.00    -0.186 OA
BRANCH  34  35
ATOM     35  P   UNL     1      64.484 164.829  38.515  0.00  0.00    +0.481 P 
ATOM     36  O   UNL     1      65.804 164.104  38.403  0.00  0.00    -0.227 OA
BRANCH  35  37
ATOM     37  O   UNL     1      63.687 164.325  39.927  0.00  0.00    -0.302 OA
ATOM     38  H   UNL     1      62.838 164.789  40.002  0.00  0.00    +0.222 HD
ENDBRANCH  35  37
BRANCH  35  39
ATOM     39  O   UNL     1      64.812 166.480  38.554  0.00  0.00    -0.302 OA
ATOM     40  H   UNL     1      63.980 166.973  38.626  0.00  0.00    +0.222 HD
ENDBRANCH  35  39
ENDBRANCH  34  35
ENDBRANCH  30  34
ENDBRANCH  29  30
ENDBRANCH  25  29
ENDBRANCH  24  25
ENDBRANCH   1  24
TORSDOF 13
