MODEL 1
REMARK VINA RESULT:    -8.944      0.000      0.000
REMARK INTER + INTRA:         -14.068
REMARK INTER:                 -12.343
REMARK INTRA:                  -1.725
REMARK UNBOUND:                -1.725
REMARK  Name = =
REMARK  8 active torsions:
REMARK  status: ('A' for Active; 'I' for Inactive)
REMARK    1  A    between atoms: N_1  and  N_17
REMARK    2  A    between atoms: N_1  and  S_33
REMARK    3  A    between atoms: C_2  and  C_4
REMARK    4  A    between atoms: C_14  and  N_16
REMARK    5  A    between atoms: C_22  and  C_26
REMARK    6  A    between atoms: S_33  and  P_34
REMARK    7  A    between atoms: P_34  and  O_36
REMARK    8  A    between atoms: P_34  and  O_37
REMARK                            x       y       z     vdW  Elec       q    Type
REMARK                         _______ _______ _______ _____ _____    ______ ____
ROOT
ATOM      1  N   UNL     1       3.152  -3.168  28.412  0.00  0.00    -0.145 N 
ATOM      2  C   UNL     1       4.145  -3.656  27.549  0.00  0.00    +0.292 C 
ATOM      3  O   UNL     1       4.717  -4.750  27.900  0.00  0.00    -0.266 OA
ENDROOT
BRANCH   2   4
ATOM      4  C   UNL     1       4.568  -3.021  26.301  0.00  0.00    +0.143 C 
ATOM      5  N   UNL     1       3.856  -3.252  25.176  0.00  0.00    -0.209 NA
ATOM      6  C   UNL     1       4.281  -2.663  24.066  0.00  0.00    +0.221 C 
ATOM      7  N   UNL     1       3.623  -2.819  22.832  0.00  0.00    -0.278 N 
ATOM      8  C   UNL     1       2.390  -3.501  22.840  0.00  0.00    +0.094 C 
ATOM      9  C   UNL     1       2.464  -4.974  22.584  0.00  0.00    +0.022 C 
ATOM     10  C   UNL     1       3.363  -5.320  21.418  0.00  0.00    +0.004 C 
ATOM     11  C   UNL     1       4.721  -4.709  21.723  0.00  0.00    +0.022 C 
ATOM     12  C   UNL     1       4.522  -3.209  21.770  0.00  0.00    +0.094 C 
ATOM     13  N   UNL     1       5.389  -1.860  24.062  0.00  0.00    -0.199 NA
ATOM     14  C   UNL     1       6.103  -1.623  25.168  0.00  0.00    +0.130 C 
ATOM     15  C   UNL     1       5.687  -2.218  26.331  0.00  0.00    +0.058 C 
BRANCH  14  16
ATOM     16  N   UNL     1       7.265  -0.774  25.136  0.00  0.00    -0.343 N 
ATOM     17  H   UNL     1       7.548  -0.296  25.950  0.00  0.00    +0.144 HD
ATOM     18  H   UNL     1       7.778  -0.671  24.302  0.00  0.00    +0.144 HD
ENDBRANCH  14  16
ENDBRANCH   2   4
BRANCH   1  19
ATOM     19  N   UNL     1       2.835  -3.855  29.579  0.00  0.00    -0.205 N 
ATOM     20  C   UNL     1       1.900  -4.905  29.556  0.00  0.00    +0.321 C 
ATOM     21  O   UNL     1       1.366  -5.183  28.435  0.00  0.00    -0.251 OA
ATOM     22  N   UNL     1       1.549  -5.624  30.688  0.00  0.00    -0.258 N 
ATOM     23  C   UNL     1       0.559  -6.717  30.669  0.00  0.00    +0.124 C 
ATOM     24  C   UNL     1       0.205  -6.929  32.119  0.00  0.00    +0.135 C 
ATOM     25  O   UNL     1       1.294  -7.492  32.733  0.00  0.00    -0.353 OA
ATOM     26  C   UNL     1       2.313  -6.564  32.844  0.00  0.00    +0.164 C 
ATOM     27  C   UNL     1       2.136  -5.352  31.973  0.00  0.00    +0.127 C 
ATOM     28  H   UNL     1       3.269  -3.606  30.427  0.00  0.00    +0.176 HD
BRANCH  24  29
ATOM     29  C   UNL     1      -1.054  -7.748  32.300  0.00  0.00    +0.029 C 
ATOM     30  C   UNL     1      -1.650  -7.923  30.930  0.00  0.00    +0.002 C 
ATOM     31  C   UNL     1      -2.981  -8.599  30.917  0.00  0.00    +0.000 C 
ATOM     32  C   UNL     1      -4.051  -7.576  31.213  0.00  0.00    +0.000 C 
ATOM     33  C   UNL     1      -4.399  -7.508  32.671  0.00  0.00    +0.000 C 
ATOM     34  C   UNL     1      -3.213  -7.836  33.555  0.00  0.00    +0.000 C 
ATOM     35  C   UNL     1      -1.998  -7.024  33.234  0.00  0.00    +0.002 C 
ENDBRANCH  24  29
ENDBRANCH   1  19
BRANCH   1  36
ATOM     36  S   UNL     1       2.303  -1.689  28.031  0.00  0.00    +0.053 S 
BRANCH  36  37
ATOM     37  P   UNL     1       0.696  -2.053  26.695  0.00  0.00    +0.244 P 
ATOM     38  S   UNL     1      -0.813  -1.826  27.501  0.00  0.00    +0.004 S 
BRANCH  37  39
ATOM     39  O   UNL     1       0.844  -0.953  25.420  0.00  0.00    -0.339 OA
ATOM     40  H   UNL     1      -0.023  -0.560  25.230  0.00  0.00    +0.218 HD
ENDBRANCH  37  39
BRANCH  37  41
ATOM     41  O   UNL     1       0.838  -3.616  26.066  0.00  0.00    -0.339 OA
ATOM     42  H   UNL     1       0.571  -4.261  26.740  0.00  0.00    +0.218 HD
ENDBRANCH  37  41
ENDBRANCH  36  37
ENDBRANCH   1  36
TORSDOF 8
ENDMDL
