REMARK  Name = =
REMARK  9 active torsions:
REMARK  status: ('A' for Active; 'I' for Inactive)
REMARK    1  A    between atoms: C_1  and  O_21
REMARK    2  A    between atoms: C_2  and  O_20
REMARK    3  A    between atoms: C_4  and  C_11
REMARK    4  A    between atoms: C_7  and  S_8
REMARK    5  A    between atoms: C_11  and  C_13
REMARK    6  A    between atoms: O_21  and  N_22
REMARK    7  A    between atoms: C_23  and  C_34
REMARK    8  A    between atoms: C_23  and  C_36
REMARK    9  A    between atoms: C_26  and  N_29
REMARK                            x       y       z     vdW  Elec       q    Type
REMARK                         _______ _______ _______ _____ _____    ______ ____
ROOT
ATOM      1  C   UNL     1     -10.481  -5.533  22.620  0.00  0.00    +0.217 C 
ATOM      2  C   UNL     1     -10.707  -6.252  23.782  0.00  0.00    +0.172 C 
ATOM      3  C   UNL     1     -11.972  -6.276  24.314  0.00  0.00    +0.044 C 
ATOM      4  C   UNL     1     -13.039  -5.612  23.743  0.00  0.00    +0.056 C 
ATOM      5  C   UNL     1     -12.772  -4.907  22.591  0.00  0.00    +0.112 C 
ATOM      6  N   UNL     1     -13.830  -4.190  21.923  0.00  0.00    -0.127 NA
ATOM      7  C   UNL     1     -11.528  -4.839  22.000  0.00  0.00    +0.158 C 
ENDROOT
BRANCH   7   8
ATOM      8  S   UNL     1     -11.292  -3.901  20.526  0.00  0.00    -0.008 S 
ATOM      9  O   UNL     1     -12.548  -4.032  19.664  0.00  0.00    -0.172 OA
ATOM     10  O   UNL     1     -10.167  -4.369  19.702  0.00  0.00    -0.172 OA
ATOM     11  H   UNL     1     -11.032  -2.625  20.919  0.00  0.00    +0.215 HD
ENDBRANCH   7   8
BRANCH   4  12
ATOM     12  C   UNL     1     -14.342  -5.700  24.364  0.00  0.00    +0.174 C 
ATOM     13  O   UNL     1     -14.578  -6.674  25.136  0.00  0.00    -0.291 OA
BRANCH  12  14
ATOM     14  C   UNL     1     -15.387  -4.726  24.146  0.00  0.00    +0.062 C 
ATOM     15  C   UNL     1     -16.785  -5.287  24.354  0.00  0.00    +0.008 C 
ATOM     16  C   UNL     1     -17.610  -4.208  25.013  0.00  0.00    +0.000 C 
ATOM     17  C   UNL     1     -16.724  -2.968  24.773  0.00  0.00    +0.000 C 
ATOM     18  C   UNL     1     -15.391  -3.611  25.210  0.00  0.00    +0.007 C 
ATOM     19  C   UNL     1     -15.781  -4.284  26.509  0.00  0.00    +0.000 C 
ATOM     20  C   UNL     1     -17.316  -4.331  26.526  0.00  0.00    +0.000 C 
ENDBRANCH  12  14
ENDBRANCH   4  12
BRANCH   2  21
ATOM     21  O   UNL     1      -9.660  -6.953  24.422  0.00  0.00    -0.503 OA
ATOM     22  H   UNL     1      -8.796  -6.937  24.060  0.00  0.00    +0.292 HD
ENDBRANCH   2  21
BRANCH   1  23
ATOM     23  O   UNL     1      -9.265  -5.475  22.044  0.00  0.00    -0.396 OA
BRANCH  23  24
ATOM     24  N   UNL     1      -8.117  -6.123  22.094  0.00  0.00    -0.113 NA
ATOM     25  C   UNL     1      -7.963  -7.240  21.255  0.00  0.00    +0.151 C 
ATOM     26  C   UNL     1      -7.035  -7.076  20.069  0.00  0.00    +0.031 C 
ATOM     27  C   UNL     1      -5.616  -6.741  20.453  0.00  0.00    +0.024 C 
ATOM     28  C   UNL     1      -5.480  -5.248  20.184  0.00  0.00    +0.100 C 
ATOM     29  C   UNL     1      -6.600  -4.539  20.919  0.00  0.00    +0.043 C 
ATOM     30  C   UNL     1      -7.014  -5.205  22.188  0.00  0.00    +0.116 C 
BRANCH  28  31
ATOM     31  N   UNL     1      -4.174  -4.731  20.484  0.00  0.00    -0.193 N 
ATOM     32  N   UNL     1      -3.783  -3.488  20.646  0.00  0.00    -0.154 NA
ATOM     33  C   UNL     1      -2.474  -3.475  20.912  0.00  0.00    +0.218 C 
ATOM     34  N   UNL     1      -2.043  -4.753  20.916  0.00  0.00    -0.203 NA
ATOM     35  C   UNL     1      -3.091  -5.535  20.652  0.00  0.00    +0.186 C 
ENDBRANCH  28  31
BRANCH  25  36
ATOM     36  C   UNL     1      -7.399  -8.421  22.005  0.00  0.00    +0.085 C 
ATOM     37  N   UNL     1      -7.549  -9.604  21.584  0.00  0.00    -0.300 NA
ATOM     38  H   UNL     1      -7.172 -10.359  22.091  0.00  0.00    +0.186 HD
ENDBRANCH  25  36
BRANCH  25  39
ATOM     39  C   UNL     1      -9.264  -7.632  20.639  0.00  0.00    +0.085 C 
ATOM     40  N   UNL     1      -9.665  -7.232  19.522  0.00  0.00    -0.300 NA
ATOM     41  H   UNL     1     -10.536  -7.532  19.176  0.00  0.00    +0.186 HD
ENDBRANCH  25  39
ENDBRANCH  23  24
ENDBRANCH   1  23
TORSDOF 9
