REMARK  Name = =
REMARK  0 active torsions:
REMARK  status: ('A' for Active; 'I' for Inactive)
REMARK                            x       y       z     vdW  Elec       q    Type
REMARK                         _______ _______ _______ _____ _____    ______ ____
ROOT
ATOM      1  C   UNL     1      -4.118  -5.825  32.814  0.00  0.00    +0.000 C 
ATOM      2  C   UNL     1      -3.542  -6.735  33.677  0.00  0.00    +0.000 C 
ATOM      3  C   UNL     1      -2.653  -7.697  33.250  0.00  0.00    +0.000 C 
ATOM      4  C   UNL     1      -2.296  -7.794  31.921  0.00  0.00    +0.000 C 
ATOM      5  C   UNL     1      -2.873  -6.884  31.061  0.00  0.00    +0.000 C 
ATOM      6  C   UNL     1      -3.766  -5.916  31.487  0.00  0.00    +0.000 C 
ENDROOT
TORSDOF 0
