REMARK  Name = =
REMARK  0 active torsions:
REMARK  status: ('A' for Active; 'I' for Inactive)
REMARK                            x       y       z     vdW  Elec       q    Type
REMARK                         _______ _______ _______ _____ _____    ______ ____
ROOT
ATOM      1  N   UNL     1      -3.732  -4.184  31.619  0.00  0.00    -0.304 N 
ATOM      2  C   UNL     1      -4.259  -4.650  32.846  0.00  0.00    +0.222 C 
ATOM      3  O   UNL     1      -4.827  -3.845  33.611  0.00  0.00    -0.275 OA
ATOM      4  C   UNL     1      -4.125  -6.082  33.192  0.00  0.00    +0.085 C 
ATOM      5  C   UNL     1      -4.049  -6.799  31.833  0.00  0.00    +0.011 C 
ATOM      6  C   UNL     1      -2.695  -6.391  31.284  0.00  0.00    +0.022 C 
ATOM      7  C   UNL     1      -2.750  -4.957  30.851  0.00  0.00    +0.089 C 
ATOM      8  H   UNL     1      -4.033  -3.314  31.270  0.00  0.00    +0.149 HD
ENDROOT
TORSDOF 0
