REMARK  Name = =
REMARK  3 active torsions:
REMARK  status: ('A' for Active; 'I' for Inactive)
REMARK    1  A    between atoms: N_1  and  C_5
REMARK    2  A    between atoms: N_1  and  C_8
REMARK    3  A    between atoms: C_8  and  N_10
REMARK                            x       y       z     vdW  Elec       q    Type
REMARK                         _______ _______ _______ _____ _____    ______ ____
ROOT
ATOM      1  N   UNL     1      -1.910  -8.735  31.197  0.00  0.00    -0.296 N 
ATOM      2  H   UNL     1      -1.876  -9.645  31.571  0.00  0.00    +0.154 HD
ENDROOT
BRANCH   1   6
ATOM      3  C   UNL     1      -4.379  -6.112  33.357  0.00  0.00    +0.000 C 
ATOM      4  C   UNL     1      -3.895  -7.249  33.926  0.00  0.00    +0.001 C 
ATOM      5  C   UNL     1      -3.088  -8.104  33.236  0.00  0.00    +0.015 C 
ATOM      6  C   UNL     1      -2.723  -7.840  31.900  0.00  0.00    +0.050 C 
ATOM      7  C   UNL     1      -3.200  -6.703  31.311  0.00  0.00    +0.015 C 
ATOM      8  C   UNL     1      -4.022  -5.864  32.062  0.00  0.00    +0.001 C 
ENDBRANCH   1   6
BRANCH   1   9
ATOM      9  C   UNL     1      -1.137  -8.542  30.047  0.00  0.00    +0.132 C 
ATOM     10  S   UNL     1      -0.300  -7.213  29.653  0.00  0.00    -0.019 S 
BRANCH   9  11
ATOM     11  N   UNL     1      -1.025  -9.621  29.084  0.00  0.00    -0.340 N 
ATOM     12  H   UNL     1      -1.499 -10.470  29.238  0.00  0.00    +0.144 HD
ATOM     13  H   UNL     1      -0.475  -9.505  28.276  0.00  0.00    +0.144 HD
ENDBRANCH   9  11
ENDBRANCH   1   9
TORSDOF 3
