REMARK  Name = =
REMARK  10 active torsions:
REMARK  status: ('A' for Active; 'I' for Inactive)
REMARK    1  A    between atoms: C_1  and  O_22
REMARK    2  A    between atoms: C_2  and  O_21
REMARK    3  A    between atoms: C_4  and  C_7
REMARK    4  A    between atoms: C_8  and  O_20
REMARK    5  A    between atoms: C_12  and  O_19
REMARK    6  A    between atoms: C_14  and  O_18
REMARK    7  A    between atoms: O_22  and  C_23
REMARK    8  A    between atoms: C_26  and  N_29
REMARK    9  A    between atoms: N_29  and  C_30
REMARK   10  A    between atoms: C_30  and  N_32
REMARK                            x       y       z     vdW  Elec       q    Type
REMARK                         _______ _______ _______ _____ _____    ______ ____
ROOT
ATOM      1  C   UNL     1       0.111  -7.047  29.007  0.00  0.00    +0.179 C 
ATOM      2  C   UNL     1       1.346  -7.519  28.697  0.00  0.00    +0.168 C 
ATOM      3  C   UNL     1       1.492  -8.443  27.644  0.00  0.00    +0.043 C 
ATOM      4  C   UNL     1       0.448  -8.897  26.909  0.00  0.00    +0.041 C 
ATOM      5  C   UNL     1      -0.807  -8.379  27.270  0.00  0.00    +0.006 C 
ATOM      6  C   UNL     1      -0.979  -7.488  28.279  0.00  0.00    +0.041 C 
ENDROOT
BRANCH   4   7
ATOM      7  C   UNL     1       0.520  -9.848  25.811  0.00  0.00    +0.182 A 
ATOM      8  C   UNL     1       0.925  -9.561  24.543  0.00  0.00    +0.208 A 
ATOM      9  C   UNL     1       0.977 -10.514  23.521  0.00  0.00    +0.238 A 
ATOM     10  O   UNL     1       1.360 -10.173  22.385  0.00  0.00    -0.283 OA
ATOM     11  C   UNL     1       0.601 -11.826  23.791  0.00  0.00    +0.110 A 
ATOM     12  C   UNL     1       0.626 -12.813  22.834  0.00  0.00    +0.143 C 
ATOM     13  C   UNL     1       0.227 -14.115  23.202  0.00  0.00    +0.073 C 
ATOM     14  C   UNL     1      -0.172 -14.359  24.483  0.00  0.00    +0.140 C 
ATOM     15  C   UNL     1      -0.188 -13.356  25.411  0.00  0.00    +0.074 C 
ATOM     16  C   UNL     1       0.199 -12.046  25.101  0.00  0.00    +0.155 A 
ATOM     17  O   UNL     1       0.169 -11.117  26.021  0.00  0.00    -0.450 OA
BRANCH  14  18
ATOM     18  O   UNL     1      -0.560 -15.673  24.791  0.00  0.00    -0.505 OA
ATOM     19  H   UNL     1      -0.536 -16.336  24.129  0.00  0.00    +0.292 HD
ENDBRANCH  14  18
BRANCH  12  20
ATOM     20  O   UNL     1       1.021 -12.592  21.554  0.00  0.00    -0.505 OA
ATOM     21  H   UNL     1       1.022 -13.296  20.936  0.00  0.00    +0.292 HD
ENDBRANCH  12  20
BRANCH   8  22
ATOM     22  O   UNL     1       1.314  -8.293  24.191  0.00  0.00    -0.501 OA
ATOM     23  H   UNL     1       1.303  -7.606  24.828  0.00  0.00    +0.292 HD
ENDBRANCH   8  22
ENDBRANCH   4   7
BRANCH   2  24
ATOM     24  O   UNL     1       2.453  -7.094  29.410  0.00  0.00    -0.503 OA
ATOM     25  H   UNL     1       2.352  -6.479  30.110  0.00  0.00    +0.292 HD
ENDBRANCH   2  24
BRANCH   1  26
ATOM     26  O   UNL     1      -0.066  -6.138  30.037  0.00  0.00    -0.450 OA
BRANCH  26  27
ATOM     27  C   UNL     1      -1.308  -5.593  30.331  0.00  0.00    +0.146 C 
ATOM     28  C   UNL     1      -1.632  -4.352  29.847  0.00  0.00    +0.039 C 
ATOM     29  C   UNL     1      -2.868  -3.742  30.105  0.00  0.00    +0.018 C 
ATOM     30  C   UNL     1      -3.817  -4.379  30.869  0.00  0.00    +0.050 C 
ATOM     31  C   UNL     1      -3.453  -5.649  31.349  0.00  0.00    +0.018 C 
ATOM     32  C   UNL     1      -2.243  -6.241  31.093  0.00  0.00    +0.039 C 
BRANCH  30  33
ATOM     33  N   UNL     1      -5.077  -3.835  31.186  0.00  0.00    -0.296 N 
ATOM     34  H   UNL     1      -5.841  -4.452  31.122  0.00  0.00    +0.154 HD
BRANCH  33  35
ATOM     35  C   UNL     1      -5.375  -2.537  31.578  0.00  0.00    +0.132 C 
ATOM     36  S   UNL     1      -6.872  -2.230  32.228  0.00  0.00    -0.019 S 
BRANCH  35  37
ATOM     37  N   UNL     1      -4.483  -1.457  31.459  0.00  0.00    -0.340 N 
ATOM     38  H   UNL     1      -3.586  -1.599  31.079  0.00  0.00    +0.144 HD
ATOM     39  H   UNL     1      -4.755  -0.559  31.756  0.00  0.00    +0.144 HD
ENDBRANCH  35  37
ENDBRANCH  33  35
ENDBRANCH  30  33
ENDBRANCH  26  27
ENDBRANCH   1  26
TORSDOF 10
