REMARK  Name = =
REMARK  4 active torsions:
REMARK  status: ('A' for Active; 'I' for Inactive)
REMARK    1  A    between atoms: N_1  and  N_28
REMARK    2  A    between atoms: C_34  and  C_35
REMARK    3  A    between atoms: C_37  and  C_41
REMARK    4  A    between atoms: C_38  and  O_48
REMARK                            x       y       z     vdW  Elec       q    Type
REMARK                         _______ _______ _______ _____ _____    ______ ____
ROOT
ATOM      1  N   UNL     1       3.175  -6.911  23.614  0.00  0.00    -0.199 NA
ATOM      2  C   UNL     1       2.764  -7.149  24.930  0.00  0.00    +0.114 C 
ATOM      3  C   UNL     1       1.585  -8.027  25.144  0.00  0.00    +0.110 C 
ATOM      4  N   UNL     1       1.881  -9.181  25.979  0.00  0.00    -0.305 N 
ATOM      5  C   UNL     1       2.807 -10.086  25.411  0.00  0.00    +0.093 C 
ATOM      6  C   UNL     1       3.756 -10.556  26.465  0.00  0.00    +0.048 C 
ATOM      7  C   UNL     1       3.489  -9.678  27.662  0.00  0.00    -0.009 C 
ATOM      8  C   UNL     1       2.312  -8.816  27.292  0.00  0.00    +0.057 C 
ATOM      9  C   UNL     1       2.057 -11.259  24.816  0.00  0.00    +0.089 C 
ATOM     10  N   UNL     1       2.960 -12.211  24.200  0.00  0.00    -0.296 NA
ATOM     11  C   UNL     1       2.719 -12.348  22.780  0.00  0.00    +0.069 C 
ATOM     12  C   UNL     1       1.596 -13.300  22.476  0.00  0.00    +0.017 C 
ATOM     13  C   UNL     1       0.892 -12.818  21.222  0.00  0.00    +0.003 C 
ATOM     14  C   UNL     1       1.273 -13.672  20.018  0.00  0.00    +0.017 C 
ATOM     15  C   UNL     1       2.262 -12.944  19.151  0.00  0.00    +0.069 C 
ATOM     16  N   UNL     1       1.947 -11.519  19.079  0.00  0.00    -0.296 NA
ATOM     17  C   UNL     1       1.057 -11.285  17.937  0.00  0.00    +0.086 C 
ATOM     18  C   UNL     1       0.119 -10.144  18.171  0.00  0.00    +0.089 C 
ATOM     19  N   UNL     1       0.675  -8.849  17.941  0.00  0.00    -0.271 NA
ATOM     20  C   UNL     1       1.504  -8.375  19.018  0.00  0.00    +0.073 C 
ATOM     21  C   UNL     1       2.809  -7.924  18.429  0.00  0.00    +0.019 C 
ATOM     22  C   UNL     1       2.856  -8.562  17.065  0.00  0.00    +0.019 C 
ATOM     23  C   UNL     1       1.400  -8.704  16.718  0.00  0.00    +0.072 C 
ATOM     24  C   UNL     1       0.747  -7.203  19.657  0.00  0.00    +0.085 C 
ATOM     25  N   UNL     1       1.585  -6.557  20.622  0.00  0.00    -0.295 NA
ATOM     26  C   UNL     1       1.387  -6.983  21.973  0.00  0.00    +0.088 C 
ATOM     27  C   UNL     1       2.610  -7.670  22.560  0.00  0.00    +0.109 C 
ATOM     28  H   UNL     1       2.833 -13.120  24.645  0.00  0.00    +0.123 HD
ATOM     29  H   UNL     1       2.807 -10.984  18.958  0.00  0.00    +0.123 HD
ATOM     30  H   UNL     1       1.406  -5.554  20.577  0.00  0.00    +0.123 HD
ENDROOT
BRANCH   1  31
ATOM     31  N   UNL     1       4.507  -6.575  23.434  0.00  0.00    -0.217 N 
ATOM     32  C   UNL     1       5.409  -6.467  24.509  0.00  0.00    +0.239 C 
ATOM     33  O   UNL     1       4.990  -6.108  25.632  0.00  0.00    -0.274 OA
ATOM     34  C   UNL     1       6.864  -6.761  24.382  0.00  0.00    +0.087 C 
ATOM     35  C   UNL     1       7.201  -7.107  22.943  0.00  0.00    +0.012 C 
ATOM     36  C   UNL     1       6.454  -6.159  22.065  0.00  0.00    +0.028 C 
ATOM     37  C   UNL     1       4.953  -6.337  22.079  0.00  0.00    +0.132 C 
BRANCH  37  38
ATOM     38  C   UNL     1       4.414  -5.053  21.556  0.00  0.00    +0.078 C 
ATOM     39  C   UNL     1       3.830  -4.109  22.354  0.00  0.00    +0.018 C 
ATOM     40  C   UNL     1       3.324  -2.913  21.839  0.00  0.00    +0.043 C 
ATOM     41  C   UNL     1       3.442  -2.728  20.477  0.00  0.00    +0.151 C 
ATOM     42  C   UNL     1       4.038  -3.709  19.716  0.00  0.00    +0.135 C 
ATOM     43  N   UNL     1       4.516  -4.850  20.235  0.00  0.00    -0.243 NA
BRANCH  40  44
ATOM     44  C   UNL     1       2.705  -1.933  22.716  0.00  0.00    +0.150 C 
ATOM     45  S   UNL     1       1.051  -1.431  22.194  0.00  0.00    -0.115 S 
ATOM     46  C   UNL     1       1.258   0.348  22.620  0.00  0.00    +0.081 C 
ATOM     47  C   UNL     1       2.727   0.476  22.460  0.00  0.00    +0.107 C 
ATOM     48  N   UNL     1       3.425  -0.693  22.877  0.00  0.00    -0.260 N 
ATOM     49  C   UNL     1       4.741  -0.674  23.411  0.00  0.00    +0.304 C 
ATOM     50  O   UNL     1       5.328   0.426  23.527  0.00  0.00    -0.265 OA
ENDBRANCH  40  44
BRANCH  41  51
ATOM     51  O   UNL     1       2.956  -1.549  19.871  0.00  0.00    -0.504 OA
ATOM     52  H   UNL     1       2.552  -0.886  20.395  0.00  0.00    +0.292 HD
ENDBRANCH  41  51
ENDBRANCH  37  38
ENDBRANCH   1  31
TORSDOF 4
