MODEL 1
REMARK VINA RESULT:   -12.739      0.000      0.000
REMARK INTER + INTRA:         -16.924
REMARK INTER:                 -15.717
REMARK INTRA:                  -1.207
REMARK UNBOUND:                -1.207
REMARK  Name = =
REMARK  4 active torsions:
REMARK  status: ('A' for Active; 'I' for Inactive)
REMARK    1  A    between atoms: C_1  and  C_17
REMARK    2  A    between atoms: C_7  and  C_27
REMARK    3  A    between atoms: N_15  and  C_23
REMARK    4  A    between atoms: C_31  and  S_33
REMARK                            x       y       z     vdW  Elec       q    Type
REMARK                         _______ _______ _______ _____ _____    ______ ____
ROOT
ATOM      1  C   UNL     1     -18.475 -41.694  26.983  0.00  0.00    -0.025 C 
ATOM      2  C   UNL     1     -17.173 -41.798  26.558  0.00  0.00    -0.025 C 
ATOM      3  C   UNL     1     -16.117 -42.076  27.413  0.00  0.00    -0.017 C 
ATOM      4  C   UNL     1     -16.368 -42.256  28.749  0.00  0.00    -0.004 C 
ATOM      5  C   UNL     1     -17.645 -42.164  29.236  0.00  0.00    -0.001 C 
ATOM      6  C   UNL     1     -18.681 -41.884  28.333  0.00  0.00    -0.005 C 
ATOM      7  C   UNL     1     -14.700 -42.213  26.879  0.00  0.00    +0.084 C 
ATOM      8  C   UNL     1     -14.804 -42.880  25.522  0.00  0.00    -0.016 C 
ATOM      9  C   UNL     1     -15.871 -42.595  24.707  0.00  0.00    -0.021 C 
ATOM     10  C   UNL     1     -16.846 -41.599  25.154  0.00  0.00    +0.052 C 
ATOM     11  C   UNL     1     -16.000 -43.199  23.491  0.00  0.00    -0.004 C 
ATOM     12  C   UNL     1     -15.031 -44.107  23.094  0.00  0.00    -0.000 C 
ATOM     13  C   UNL     1     -13.945 -44.423  23.879  0.00  0.00    -0.000 C 
ATOM     14  C   UNL     1     -13.858 -43.779  25.115  0.00  0.00    -0.004 C 
ENDROOT
BRANCH   1  17
ATOM     15  N   UNL     1     -21.394 -42.323  24.678  0.00  0.00    -0.292 N 
ATOM     16  C   UNL     1     -20.215 -42.590  25.427  0.00  0.00    +0.096 C 
ATOM     17  C   UNL     1     -19.618 -41.401  26.093  0.00  0.00    +0.042 C 
ATOM     18  C   UNL     1     -20.718 -40.667  26.795  0.00  0.00    +0.008 C 
ATOM     19  C   UNL     1     -21.968 -41.478  26.819  0.00  0.00    +0.022 C 
ATOM     20  C   UNL     1     -22.427 -41.636  25.384  0.00  0.00    +0.092 C 
BRANCH  15  23
ATOM     21  N   UNL     1     -22.484 -41.489  21.382  0.00  0.00    -0.145 NA
ATOM     22  N   UNL     1     -22.446 -41.813  22.658  0.00  0.00    -0.133 NA
ATOM     23  C   UNL     1     -21.271 -41.986  23.338  0.00  0.00    +0.153 C 
ATOM     24  C   UNL     1     -20.134 -41.797  22.599  0.00  0.00    +0.038 C 
ATOM     25  C   UNL     1     -20.154 -41.457  21.261  0.00  0.00    +0.025 C 
ATOM     26  C   UNL     1     -21.377 -41.303  20.653  0.00  0.00    +0.122 C 
ENDBRANCH  15  23
ENDBRANCH   1  17
BRANCH   7  27
ATOM     27  C   UNL     1     -13.851 -42.924  27.820  0.00  0.00    +0.067 C 
ATOM     28  C   UNL     1     -14.264 -44.164  28.301  0.00  0.00    +0.015 C 
ATOM     29  C   UNL     1     -13.512 -44.872  29.186  0.00  0.00    +0.003 C 
ATOM     30  C   UNL     1     -12.293 -44.331  29.616  0.00  0.00    +0.024 C 
ATOM     31  C   UNL     1     -11.885 -43.124  29.152  0.00  0.00    +0.095 C 
ATOM     32  N   UNL     1     -12.685 -42.465  28.268  0.00  0.00    -0.244 NA
BRANCH  31  33
ATOM     33  S   UNL     1     -10.397 -42.408  29.647  0.00  0.00    -0.114 S 
ATOM     34  C   UNL     1      -9.400 -43.345  30.872  0.00  0.00    +0.135 C 
ATOM     35  C   UNL     1      -8.068 -42.814  30.501  0.00  0.00    +0.239 C 
ATOM     36  O   UNL     1      -7.225 -42.487  31.407  0.00  0.00    -0.274 OA
ATOM     37  N   UNL     1      -7.887 -42.732  29.115  0.00  0.00    -0.247 N 
ATOM     38  C   UNL     1      -9.034 -42.290  28.418  0.00  0.00    +0.265 C 
ATOM     39  O   UNL     1      -9.130 -41.910  27.260  0.00  0.00    -0.264 OA
ATOM     40  H   UNL     1     -10.969 -41.238  30.040  0.00  0.00    +0.098 HD
ATOM     41  H   UNL     1      -7.040 -42.961  28.668  0.00  0.00    +0.158 HD
ENDBRANCH  31  33
ENDBRANCH   7  27
TORSDOF 4
ENDMDL
