REMARK  Name = =
REMARK  0 active torsions:
REMARK  status: ('A' for Active; 'I' for Inactive)
REMARK                            x       y       z     vdW  Elec       q    Type
REMARK                         _______ _______ _______ _____ _____    ______ ____
ROOT
ATOM      1  C   UNL     1      -4.434  -5.157  33.200  0.00  0.00    +0.094 C 
ATOM      2  N   UNL     1      -4.880  -4.242  32.409  0.00  0.00    -0.267 NA
ATOM      3  C   UNL     1      -4.618  -3.867  31.064  0.00  0.00    +0.147 C 
ATOM      4  C   UNL     1      -3.173  -3.749  30.683  0.00  0.00    +0.114 C 
ATOM      5  N   UNL     1      -2.418  -4.958  30.836  0.00  0.00    -0.331 N 
ATOM      6  C   UNL     1      -2.509  -6.052  31.741  0.00  0.00    +0.046 C 
ATOM      7  C   UNL     1      -3.408  -6.138  32.794  0.00  0.00    +0.032 C 
ATOM      8  C   UNL     1      -3.402  -7.249  33.605  0.00  0.00    +0.003 C 
ATOM      9  C   UNL     1      -2.495  -8.264  33.354  0.00  0.00    +0.000 C 
ATOM     10  C   UNL     1      -1.610  -8.163  32.305  0.00  0.00    +0.001 C 
ATOM     11  C   UNL     1      -1.607  -7.064  31.492  0.00  0.00    +0.014 C 
ATOM     12  H   UNL     1      -1.688  -5.050  30.182  0.00  0.00    +0.147 HD
ENDROOT
TORSDOF 0
