REMARK  Name = =
REMARK  6 active torsions:
REMARK  status: ('A' for Active; 'I' for Inactive)
REMARK    1  A    between atoms: C_1  and  S_13
REMARK    2  A    between atoms: C_4  and  C_10
REMARK    3  A    between atoms: C_5  and  S_9
REMARK    4  A    between atoms: C_10  and  O_12
REMARK    5  A    between atoms: S_13  and  S_14
REMARK    6  A    between atoms: S_14  and  S_15
REMARK                            x       y       z     vdW  Elec       q    Type
REMARK                         _______ _______ _______ _____ _____    ______ ____
ROOT
ATOM      1  C   UNL     1      -8.720  -2.750  32.149  0.00  0.00    +0.154 C 
ATOM      2  C   UNL     1      -9.535  -2.381  30.985  0.00  0.00    +0.104 C 
ATOM      3  N   UNL     1     -10.703  -2.184  31.875  0.00  0.00    -0.252 N 
ATOM      4  C   UNL     1     -11.624  -1.475  31.046  0.00  0.00    +0.132 C 
ATOM      5  C   UNL     1     -10.945  -0.757  30.153  0.00  0.00    +0.021 C 
ATOM      6  C   UNL     1      -9.483  -1.006  30.406  0.00  0.00    +0.055 C 
ATOM      7  C   UNL     1     -10.004  -2.862  32.910  0.00  0.00    +0.242 C 
ATOM      8  O   UNL     1     -10.361  -3.344  34.006  0.00  0.00    -0.274 OA
ENDROOT
BRANCH   5   9
ATOM      9  S   UNL     1     -11.711   0.281  28.926  0.00  0.00    -0.144 S 
ATOM     10  H   UNL     1     -10.749   0.876  28.171  0.00  0.00    +0.107 HD
ENDBRANCH   5   9
BRANCH   4  11
ATOM     11  C   UNL     1     -13.082  -1.540  31.170  0.00  0.00    +0.352 C 
ATOM     12  O   UNL     1     -13.822  -0.779  30.509  0.00  0.00    -0.244 OA
BRANCH  11  13
ATOM     13  O   UNL     1     -13.668  -2.469  32.043  0.00  0.00    -0.476 OA
ATOM     14  H   UNL     1     -13.127  -3.046  32.545  0.00  0.00    +0.295 HD
ENDBRANCH  11  13
ENDBRANCH   4  11
BRANCH   1  15
ATOM     15  S   UNL     1      -7.607  -1.571  32.879  0.00  0.00    -0.062 S 
BRANCH  15  16
ATOM     16  S   UNL     1      -5.827  -1.319  31.751  0.00  0.00    -0.026 S 
BRANCH  16  17
ATOM     17  S   UNL     1      -4.698  -3.133  31.687  0.00  0.00    -0.099 S 
ATOM     18  H   UNL     1      -3.567  -2.937  30.958  0.00  0.00    +0.115 HD
ENDBRANCH  16  17
ENDBRANCH  15  16
ENDBRANCH   1  15
TORSDOF 6
