REMARK  Name = =
REMARK  3 active torsions:
REMARK  status: ('A' for Active; 'I' for Inactive)
REMARK    1  A    between atoms: C_1  and  S_12
REMARK    2  A    between atoms: S_12  and  N_15
REMARK    3  A    between atoms: C_16  and  O_18
REMARK                            x       y       z     vdW  Elec       q    Type
REMARK                         _______ _______ _______ _____ _____    ______ ____
ROOT
ATOM      1  C   UNL     1      -3.988  -4.890  32.348  0.00  0.00    +0.203 C 
ATOM      2  N   UNL     1      -4.807  -4.419  33.234  0.00  0.00    -0.250 NA
ATOM      3  C   UNL     1      -5.343  -3.084  33.421  0.00  0.00    +0.148 C 
ATOM      4  C   UNL     1      -6.057  -2.577  32.196  0.00  0.00    +0.114 C 
ATOM      5  N   UNL     1      -5.205  -2.315  31.074  0.00  0.00    -0.331 N 
ATOM      6  C   UNL     1      -3.954  -2.925  30.699  0.00  0.00    +0.047 C 
ATOM      7  C   UNL     1      -3.422  -4.076  31.284  0.00  0.00    +0.050 C 
ATOM      8  C   UNL     1      -2.196  -4.579  30.852  0.00  0.00    +0.004 C 
ATOM      9  C   UNL     1      -1.538  -3.915  29.846  0.00  0.00    +0.000 C 
ATOM     10  C   UNL     1      -2.078  -2.780  29.278  0.00  0.00    +0.001 C 
ATOM     11  C   UNL     1      -3.302  -2.267  29.701  0.00  0.00    +0.014 C 
ATOM     12  H   UNL     1      -5.523  -1.610  30.465  0.00  0.00    +0.147 HD
ENDROOT
BRANCH   1  13
ATOM     13  S   UNL     1      -3.514  -6.553  32.365  0.00  0.00    +0.094 S 
ATOM     14  O   UNL     1      -4.376  -7.362  33.322  0.00  0.00    -0.148 OA
ATOM     15  O   UNL     1      -3.510  -7.200  31.003  0.00  0.00    -0.148 OA
BRANCH  13  16
ATOM     16  N   UNL     1      -1.920  -6.748  32.997  0.00  0.00    -0.150 N 
ATOM     17  C   UNL     1      -1.200  -7.956  32.833  0.00  0.00    +0.417 C 
ATOM     18  O   UNL     1      -1.719  -8.920  32.215  0.00  0.00    -0.225 OA
ATOM     19  H   UNL     1      -1.501  -6.001  33.483  0.00  0.00    +0.180 HD
BRANCH  17  20
ATOM     20  O   UNL     1       0.098  -8.122  33.344  0.00  0.00    -0.465 OA
ATOM     21  H   UNL     1       0.511  -7.422  33.809  0.00  0.00    +0.297 HD
ENDBRANCH  17  20
ENDBRANCH  13  16
ENDBRANCH   1  13
TORSDOF 3
