REMARK  Name = =
REMARK  7 active torsions:
REMARK  status: ('A' for Active; 'I' for Inactive)
REMARK    1  A    between atoms: C_1  and  C_10
REMARK    2  A    between atoms: C_1  and  S_19
REMARK    3  A    between atoms: C_4  and  C_16
REMARK    4  A    between atoms: C_5  and  S_15
REMARK    5  A    between atoms: C_16  and  O_18
REMARK    6  A    between atoms: S_19  and  S_20
REMARK    7  A    between atoms: S_20  and  S_21
REMARK                            x       y       z     vdW  Elec       q    Type
REMARK                         _______ _______ _______ _____ _____    ______ ____
ROOT
ATOM      1  C   UNL     1      -9.465  -1.168  31.694  0.00  0.00    +0.128 C 
ATOM      2  C   UNL     1     -10.380  -1.290  32.841  0.00  0.00    +0.121 C 
ATOM      3  N   UNL     1     -11.204  -2.083  31.914  0.00  0.00    -0.278 N 
ATOM      4  C   UNL     1     -11.823  -3.115  32.635  0.00  0.00    +0.128 C 
ATOM      5  C   UNL     1     -11.212  -3.257  33.827  0.00  0.00    +0.021 C 
ATOM      6  C   UNL     1     -10.104  -2.262  33.941  0.00  0.00    +0.057 C 
ATOM      7  C   UNL     1     -10.766  -1.202  30.919  0.00  0.00    +0.215 C 
ATOM      8  O   UNL     1     -11.266  -0.706  29.886  0.00  0.00    -0.202 OA
ENDROOT
BRANCH   1  10
ATOM      9  N   UNL     1      -8.553   0.429  30.067  0.00  0.00    -0.294 NA
ATOM     10  C   UNL     1      -8.807   0.157  31.454  0.00  0.00    +0.100 C 
ATOM     11  C   UNL     1      -7.511   0.335  32.169  0.00  0.00    +0.159 C 
ATOM     12  O   UNL     1      -7.202   1.670  32.209  0.00  0.00    -0.351 OA
ATOM     13  C   UNL     1      -7.608   2.432  31.172  0.00  0.00    +0.159 C 
ATOM     14  C   UNL     1      -8.144   1.793  29.969  0.00  0.00    +0.101 C 
ATOM     15  H   UNL     1      -9.401   0.279  29.521  0.00  0.00    +0.123 HD
ENDBRANCH   1  10
BRANCH   5  16
ATOM     16  S   UNL     1     -11.595  -4.418  35.128  0.00  0.00    -0.144 S 
ATOM     17  H   UNL     1     -12.645  -5.195  34.748  0.00  0.00    +0.107 HD
ENDBRANCH   5  16
BRANCH   4  18
ATOM     18  C   UNL     1     -12.953  -3.949  32.224  0.00  0.00    +0.352 C 
ATOM     19  O   UNL     1     -13.501  -3.715  31.111  0.00  0.00    -0.244 OA
BRANCH  18  20
ATOM     20  O   UNL     1     -13.452  -4.972  32.983  0.00  0.00    -0.476 OA
ATOM     21  H   UNL     1     -13.067  -5.170  33.814  0.00  0.00    +0.295 HD
ENDBRANCH  18  20
ENDBRANCH   4  18
BRANCH   1  22
ATOM     22  S   UNL     1      -8.471  -2.559  31.207  0.00  0.00    -0.066 S 
BRANCH  22  23
ATOM     23  S   UNL     1      -6.792  -2.909  32.416  0.00  0.00    -0.027 S 
BRANCH  23  24
ATOM     24  S   UNL     1      -4.968  -2.562  31.398  0.00  0.00    -0.099 S 
ATOM     25  H   UNL     1      -3.927  -2.807  32.238  0.00  0.00    +0.115 HD
ENDBRANCH  23  24
ENDBRANCH  22  23
ENDBRANCH   1  22
TORSDOF 7
