REMARK  Name = =
REMARK  8 active torsions:
REMARK  status: ('A' for Active; 'I' for Inactive)
REMARK    1  A    between atoms: C_1  and  S_24
REMARK    2  A    between atoms: C_3  and  N_12
REMARK    3  A    between atoms: C_14  and  C_21
REMARK    4  A    between atoms: C_16  and  C_18
REMARK    5  A    between atoms: C_18  and  O_20
REMARK    6  A    between atoms: C_21  and  O_23
REMARK    7  A    between atoms: S_24  and  N_27
REMARK    8  A    between atoms: C_28  and  O_30
REMARK                            x       y       z     vdW  Elec       q    Type
REMARK                         _______ _______ _______ _____ _____    ______ ____
ROOT
ATOM      1  C   UNL     1      -4.105  -4.082  31.282  0.00  0.00    +0.204 C 
ATOM      2  N   UNL     1      -5.062  -3.239  31.640  0.00  0.00    -0.231 NA
ATOM      3  C   UNL     1      -5.344  -1.941  30.997  0.00  0.00    +0.200 C 
ATOM      4  C   UNL     1      -4.189  -0.997  31.234  0.00  0.00    +0.133 C 
ATOM      5  N   UNL     1      -3.160  -1.281  30.260  0.00  0.00    -0.330 N 
ATOM      6  C   UNL     1      -2.753  -2.551  29.759  0.00  0.00    +0.047 C 
ATOM      7  C   UNL     1      -3.181  -3.816  30.192  0.00  0.00    +0.050 C 
ATOM      8  C   UNL     1      -2.705  -4.946  29.581  0.00  0.00    +0.004 C 
ATOM      9  C   UNL     1      -1.811  -4.815  28.551  0.00  0.00    +0.000 C 
ATOM     10  C   UNL     1      -1.371  -3.592  28.102  0.00  0.00    +0.001 C 
ATOM     11  C   UNL     1      -1.851  -2.456  28.717  0.00  0.00    +0.014 C 
ATOM     12  H   UNL     1      -2.681  -0.501  29.898  0.00  0.00    +0.147 HD
ENDROOT
BRANCH   3  13
ATOM     13  N   UNL     1      -6.616  -1.438  31.406  0.00  0.00    -0.283 N 
ATOM     14  C   UNL     1      -6.931  -0.096  31.034  0.00  0.00    +0.126 C 
ATOM     15  C   UNL     1      -8.109   0.445  31.381  0.00  0.00    +0.073 C 
ATOM     16  C   UNL     1      -9.108  -0.301  32.142  0.00  0.00    +0.012 C 
ATOM     17  C   UNL     1      -8.741  -1.677  32.503  0.00  0.00    +0.090 C 
ATOM     18  C   UNL     1      -7.567  -2.167  32.137  0.00  0.00    +0.069 C 
BRANCH  17  19
ATOM     19  C   UNL     1      -9.663  -2.514  33.260  0.00  0.00    +0.339 C 
ATOM     20  O   UNL     1      -9.407  -3.716  33.494  0.00  0.00    -0.245 OA
BRANCH  19  21
ATOM     21  O   UNL     1     -10.847  -1.991  33.736  0.00  0.00    -0.477 OA
ATOM     22  H   UNL     1     -11.061  -1.093  33.574  0.00  0.00    +0.295 HD
ENDBRANCH  19  21
ENDBRANCH  17  19
BRANCH  15  23
ATOM     23  C   UNL     1      -8.385   1.816  30.978  0.00  0.00    +0.336 C 
ATOM     24  O   UNL     1      -9.479   2.348  31.288  0.00  0.00    -0.245 OA
BRANCH  23  25
ATOM     25  O   UNL     1      -7.478   2.576  30.257  0.00  0.00    -0.477 OA
ATOM     26  H   UNL     1      -6.652   2.209  30.009  0.00  0.00    +0.295 HD
ENDBRANCH  23  25
ENDBRANCH  15  23
ENDBRANCH   3  13
BRANCH   1  27
ATOM     27  S   UNL     1      -3.951  -5.536  32.171  0.00  0.00    +0.095 S 
ATOM     28  O   UNL     1      -4.456  -6.800  31.661  0.00  0.00    -0.148 OA
ATOM     29  O   UNL     1      -4.382  -5.319  33.639  0.00  0.00    -0.148 OA
BRANCH  27  30
ATOM     30  N   UNL     1      -2.224  -5.804  32.348  0.00  0.00    -0.150 N 
ATOM     31  C   UNL     1      -1.685  -6.574  33.392  0.00  0.00    +0.417 C 
ATOM     32  O   UNL     1      -2.512  -7.084  34.224  0.00  0.00    -0.225 OA
ATOM     33  H   UNL     1      -1.612  -5.400  31.692  0.00  0.00    +0.180 HD
BRANCH  31  34
ATOM     34  O   UNL     1      -0.327  -6.804  33.559  0.00  0.00    -0.465 OA
ATOM     35  H   UNL     1       0.288  -6.436  32.956  0.00  0.00    +0.297 HD
ENDBRANCH  31  34
ENDBRANCH  27  30
ENDBRANCH   1  27
TORSDOF 8
