REMARK  Name = =
REMARK  10 active torsions:
REMARK  status: ('A' for Active; 'I' for Inactive)
REMARK    1  A    between atoms: C_1  and  S_24
REMARK    2  A    between atoms: C_3  and  N_12
REMARK    3  A    between atoms: C_14  and  C_21
REMARK    4  A    between atoms: C_16  and  C_18
REMARK    5  A    between atoms: C_18  and  O_20
REMARK    6  A    between atoms: C_21  and  O_23
REMARK    7  A    between atoms: S_24  and  N_27
REMARK    8  A    between atoms: N_27  and  C_31
REMARK    9  A    between atoms: C_28  and  O_30
REMARK   10  A    between atoms: C_31  and  O_32
REMARK                            x       y       z     vdW  Elec       q    Type
REMARK                         _______ _______ _______ _____ _____    ______ ____
ROOT
ATOM      1  C   UNL     1       1.356  -2.652  24.579  0.00  0.00    +0.205 C 
ATOM      2  N   UNL     1       0.649  -2.658  25.657  0.00  0.00    -0.231 NA
ATOM      3  C   UNL     1      -0.479  -1.875  26.095  0.00  0.00    +0.200 C 
ATOM      4  C   UNL     1      -1.587  -1.757  25.101  0.00  0.00    +0.133 C 
ATOM      5  N   UNL     1      -1.250  -1.149  23.855  0.00  0.00    -0.330 N 
ATOM      6  C   UNL     1      -0.018  -1.098  23.116  0.00  0.00    +0.047 C 
ATOM      7  C   UNL     1       1.158  -1.775  23.448  0.00  0.00    +0.050 C 
ATOM      8  C   UNL     1       2.295  -1.661  22.680  0.00  0.00    +0.004 C 
ATOM      9  C   UNL     1       2.240  -0.853  21.561  0.00  0.00    +0.000 C 
ATOM     10  C   UNL     1       1.078  -0.182  21.228  0.00  0.00    +0.001 C 
ATOM     11  C   UNL     1      -0.052  -0.306  22.009  0.00  0.00    +0.014 C 
ATOM     12  H   UNL     1      -1.998  -0.678  23.422  0.00  0.00    +0.147 HD
ENDROOT
BRANCH   3  13
ATOM     13  N   UNL     1      -1.007  -2.526  27.280  0.00  0.00    -0.283 N 
ATOM     14  C   UNL     1      -1.880  -1.847  28.171  0.00  0.00    +0.126 C 
ATOM     15  C   UNL     1      -2.404  -2.385  29.249  0.00  0.00    +0.073 C 
ATOM     16  C   UNL     1      -2.108  -3.773  29.612  0.00  0.00    +0.012 C 
ATOM     17  C   UNL     1      -1.203  -4.464  28.687  0.00  0.00    +0.090 C 
ATOM     18  C   UNL     1      -0.711  -3.874  27.625  0.00  0.00    +0.069 C 
BRANCH  17  19
ATOM     19  C   UNL     1      -0.804  -5.872  28.916  0.00  0.00    +0.339 C 
ATOM     20  O   UNL     1       0.389  -6.227  28.925  0.00  0.00    -0.245 OA
BRANCH  19  21
ATOM     21  O   UNL     1      -1.797  -6.809  29.123  0.00  0.00    -0.477 OA
ATOM     22  H   UNL     1      -2.697  -6.547  29.117  0.00  0.00    +0.295 HD
ENDBRANCH  19  21
ENDBRANCH  17  19
BRANCH  15  23
ATOM     23  C   UNL     1      -3.302  -1.582  30.124  0.00  0.00    +0.336 C 
ATOM     24  O   UNL     1      -3.596  -0.397  29.862  0.00  0.00    -0.245 OA
BRANCH  23  25
ATOM     25  O   UNL     1      -3.831  -2.159  31.261  0.00  0.00    -0.477 OA
ATOM     26  H   UNL     1      -3.623  -3.047  31.476  0.00  0.00    +0.295 HD
ENDBRANCH  23  25
ENDBRANCH  15  23
ENDBRANCH   3  13
BRANCH   1  27
ATOM     27  S   UNL     1       2.671  -3.794  24.440  0.00  0.00    +0.100 S 
ATOM     28  O   UNL     1       2.257  -4.969  25.329  0.00  0.00    -0.148 OA
ATOM     29  O   UNL     1       2.835  -4.385  23.097  0.00  0.00    -0.148 OA
BRANCH  27  30
ATOM     30  N   UNL     1       4.091  -3.178  25.160  0.00  0.00    -0.095 N 
ATOM     31  C   UNL     1       5.372  -3.762  24.950  0.00  0.00    +0.423 C 
ATOM     32  O   UNL     1       6.411  -3.286  25.505  0.00  0.00    -0.225 OA
BRANCH  31  33
ATOM     33  O   UNL     1       5.571  -4.870  24.141  0.00  0.00    -0.465 OA
ATOM     34  H   UNL     1       4.844  -5.267  23.704  0.00  0.00    +0.297 HD
ENDBRANCH  31  33
BRANCH  30  35
ATOM     35  C   UNL     1       4.002  -2.015  26.014  0.00  0.00    +0.264 C 
BRANCH  35  36
ATOM     36  O   UNL     1       4.172  -0.828  25.304  0.00  0.00    -0.363 OA
ATOM     37  H   UNL     1       4.105  -0.075  25.912  0.00  0.00    +0.212 HD
ENDBRANCH  35  36
ENDBRANCH  30  35
ENDBRANCH  27  30
ENDBRANCH   1  27
TORSDOF 10
