REMARK  Name = =
REMARK  4 active torsions:
REMARK  status: ('A' for Active; 'I' for Inactive)
REMARK    1  A    between atoms: C_1  and  O_7
REMARK    2  A    between atoms: C_3  and  O_11
REMARK    3  A    between atoms: C_5  and  O_10
REMARK    4  A    between atoms: C_6  and  C_8
REMARK                            x       y       z     vdW  Elec       q    Type
REMARK                         _______ _______ _______ _____ _____    ______ ____
ROOT
ATOM      1  C   UNL     1      53.003 155.283  26.333  0.00  0.00    +0.143 C 
ATOM      2  C   UNL     1      52.596 155.693  27.587  0.00  0.00    +0.073 C 
ATOM      3  C   UNL     1      52.138 154.753  28.475  0.00  0.00    +0.140 C 
ATOM      4  C   UNL     1      52.074 153.430  28.149  0.00  0.00    +0.073 C 
ATOM      5  C   UNL     1      52.480 153.026  26.899  0.00  0.00    +0.143 C 
ATOM      6  C   UNL     1      52.944 153.951  25.988  0.00  0.00    +0.110 C 
ENDROOT
BRANCH   1   7
ATOM      7  O   UNL     1      53.475 156.199  25.399  0.00  0.00    -0.505 OA
ATOM      8  H   UNL     1      53.522 157.109  25.617  0.00  0.00    +0.292 HD
ENDBRANCH   1   7
BRANCH   6   9
ATOM      9  C   UNL     1      53.377 153.522  24.654  0.00  0.00    +0.240 C 
ATOM     10  O   UNL     1      54.279 152.652  24.546  0.00  0.00    -0.283 OA
ENDBRANCH   6   9
BRANCH   5  11
ATOM     11  O   UNL     1      52.449 151.702  26.483  0.00  0.00    -0.505 OA
ATOM     12  H   UNL     1      52.142 151.035  27.065  0.00  0.00    +0.292 HD
ENDBRANCH   5  11
BRANCH   3  13
ATOM     13  O   UNL     1      51.728 155.147  29.733  0.00  0.00    -0.505 OA
ATOM     14  H   UNL     1      51.764 156.051  29.976  0.00  0.00    +0.292 HD
ENDBRANCH   3  13
TORSDOF 4
