REMARK  Name = =
REMARK  5 active torsions:
REMARK  status: ('A' for Active; 'I' for Inactive)
REMARK    1  A    between atoms: C_1  and  O_7
REMARK    2  A    between atoms: C_3  and  O_11
REMARK    3  A    between atoms: C_5  and  O_10
REMARK    4  A    between atoms: C_6  and  C_8
REMARK    5  A    between atoms: O_11  and  N_12
REMARK                            x       y       z     vdW  Elec       q    Type
REMARK                         _______ _______ _______ _____ _____    ______ ____
ROOT
ATOM      1  C   UNL     1      52.840 155.732  26.419  0.00  0.00    +0.143 C 
ATOM      2  C   UNL     1      52.692 156.511  27.519  0.00  0.00    +0.077 C 
ATOM      3  C   UNL     1      52.358 155.980  28.746  0.00  0.00    +0.177 C 
ATOM      4  C   UNL     1      52.171 154.635  28.853  0.00  0.00    +0.077 C 
ATOM      5  C   UNL     1      52.317 153.807  27.731  0.00  0.00    +0.143 C 
ATOM      6  C   UNL     1      52.652 154.367  26.518  0.00  0.00    +0.110 C 
ENDROOT
BRANCH   1   7
ATOM      7  O   UNL     1      53.181 156.255  25.161  0.00  0.00    -0.505 OA
ATOM      8  H   UNL     1      53.274 155.682  24.425  0.00  0.00    +0.292 HD
ENDBRANCH   1   7
BRANCH   6   9
ATOM      9  C   UNL     1      52.817 153.538  25.318  0.00  0.00    +0.240 C 
ATOM     10  O   UNL     1      53.076 154.092  24.214  0.00  0.00    -0.283 OA
ENDBRANCH   6   9
BRANCH   5  11
ATOM     11  O   UNL     1      52.116 152.451  27.898  0.00  0.00    -0.505 OA
ATOM     12  H   UNL     1      51.889 152.111  28.741  0.00  0.00    +0.292 HD
ENDBRANCH   5  11
BRANCH   3  13
ATOM     13  O   UNL     1      52.217 156.806  29.846  0.00  0.00    -0.380 OA
BRANCH  13  14
ATOM     14  N   UNL     1      51.205 157.747  29.909  0.00  0.00    -0.115 N 
ATOM     15  C   UNL     1      51.391 159.195  29.967  0.00  0.00    +0.163 C 
ATOM     16  C   UNL     1      50.029 159.737  30.022  0.00  0.00    +0.004 C 
ATOM     17  C   UNL     1      49.141 158.760  30.002  0.00  0.00    +0.058 C 
ATOM     18  C   UNL     1      49.819 157.469  29.931  0.00  0.00    +0.280 C 
ATOM     19  O   UNL     1      49.219 156.343  29.896  0.00  0.00    -0.267 OA
ENDBRANCH  13  14
ENDBRANCH   3  13
TORSDOF 5
