REMARK  Name = =
REMARK  7 active torsions:
REMARK  status: ('A' for Active; 'I' for Inactive)
REMARK    1  A    between atoms: C_1  and  O_7
REMARK    2  A    between atoms: C_2  and  O_18
REMARK    3  A    between atoms: C_3  and  O_11
REMARK    4  A    between atoms: C_5  and  O_10
REMARK    5  A    between atoms: C_6  and  C_8
REMARK    6  A    between atoms: O_11  and  N_12
REMARK    7  A    between atoms: O_18  and  C_19
REMARK                            x       y       z     vdW  Elec       q    Type
REMARK                         _______ _______ _______ _____ _____    ______ ____
ROOT
ATOM      1  C   UNL     1      52.922 155.666  27.509  0.00  0.00    +0.178 C 
ATOM      2  C   UNL     1      52.745 156.564  28.580  0.00  0.00    +0.216 C 
ATOM      3  C   UNL     1      51.561 156.591  29.270  0.00  0.00    +0.211 C 
ATOM      4  C   UNL     1      50.567 155.723  28.886  0.00  0.00    +0.080 C 
ATOM      5  C   UNL     1      50.736 154.822  27.820  0.00  0.00    +0.143 C 
ATOM      6  C   UNL     1      51.931 154.800  27.127  0.00  0.00    +0.113 C 
ENDROOT
BRANCH   1   7
ATOM      7  O   UNL     1      54.151 155.721  26.882  0.00  0.00    -0.503 OA
ATOM      8  H   UNL     1      54.800 156.329  27.176  0.00  0.00    +0.292 HD
ENDBRANCH   1   7
BRANCH   6   9
ATOM      9  C   UNL     1      52.175 153.895  26.013  0.00  0.00    +0.240 C 
ATOM     10  O   UNL     1      51.427 152.939  25.688  0.00  0.00    -0.283 OA
ENDBRANCH   6   9
BRANCH   5  11
ATOM     11  O   UNL     1      49.711 153.995  27.500  0.00  0.00    -0.505 OA
ATOM     12  H   UNL     1      48.911 154.031  27.986  0.00  0.00    +0.292 HD
ENDBRANCH   5  11
BRANCH   3  13
ATOM     13  O   UNL     1      51.353 157.476  30.340  0.00  0.00    -0.377 OA
BRANCH  13  14
ATOM     14  N   UNL     1      50.322 158.373  30.388  0.00  0.00    -0.115 N 
ATOM     15  C   UNL     1      50.372 159.711  30.900  0.00  0.00    +0.163 C 
ATOM     16  C   UNL     1      48.982 160.268  30.719  0.00  0.00    +0.004 C 
ATOM     17  C   UNL     1      48.195 159.384  30.171  0.00  0.00    +0.058 C 
ATOM     18  C   UNL     1      48.969 158.178  29.939  0.00  0.00    +0.280 C 
ATOM     19  O   UNL     1      48.570 157.101  29.427  0.00  0.00    -0.267 OA
ENDBRANCH  13  14
ENDBRANCH   3  13
BRANCH   2  20
ATOM     20  O   UNL     1      53.785 157.422  28.928  0.00  0.00    -0.444 OA
BRANCH  20  21
ATOM     21  C   UNL     1      53.490 158.710  29.330  0.00  0.00    +0.180 C 
ATOM     22  C   UNL     1      54.463 159.571  29.555  0.00  0.00    +0.044 C 
ENDBRANCH  20  21
ENDBRANCH   2  20
TORSDOF 7
