REMARK  Name = =
REMARK  10 active torsions:
REMARK  status: ('A' for Active; 'I' for Inactive)
REMARK    1  A    between atoms: C_1  and  O_10
REMARK    2  A    between atoms: C_2  and  O_28
REMARK    3  A    between atoms: C_3  and  O_21
REMARK    4  A    between atoms: C_5  and  O_9
REMARK    5  A    between atoms: C_6  and  C_7
REMARK    6  A    between atoms: O_10  and  C_11
REMARK    7  A    between atoms: C_13  and  N_17
REMARK    8  A    between atoms: N_17  and  S_18
REMARK    9  A    between atoms: O_21  and  N_22
REMARK   10  A    between atoms: O_28  and  C_29
REMARK                            x       y       z     vdW  Elec       q    Type
REMARK                         _______ _______ _______ _____ _____    ______ ____
ROOT
ATOM      1  C   UNL     1      52.202 155.686  29.072  0.00  0.00    +0.189 C 
ATOM      2  C   UNL     1      52.971 155.951  27.952  0.00  0.00    +0.216 C 
ATOM      3  C   UNL     1      53.183 154.984  26.989  0.00  0.00    +0.211 C 
ATOM      4  C   UNL     1      52.634 153.745  27.125  0.00  0.00    +0.080 C 
ATOM      5  C   UNL     1      51.848 153.442  28.251  0.00  0.00    +0.143 C 
ATOM      6  C   UNL     1      51.653 154.428  29.202  0.00  0.00    +0.114 C 
ENDROOT
BRANCH   6   7
ATOM      7  C   UNL     1      50.888 154.106  30.387  0.00  0.00    +0.240 C 
ATOM      8  O   UNL     1      50.632 154.991  31.231  0.00  0.00    -0.283 OA
ENDBRANCH   6   7
BRANCH   5   9
ATOM      9  O   UNL     1      51.307 152.179  28.356  0.00  0.00    -0.505 OA
ATOM     10  H   UNL     1      51.467 151.544  27.686  0.00  0.00    +0.292 HD
ENDBRANCH   5   9
BRANCH   1  11
ATOM     11  O   UNL     1      52.008 156.651  30.004  0.00  0.00    -0.450 OA
BRANCH  11  12
ATOM     12  C   UNL     1      51.250 157.767  30.009  0.00  0.00    +0.147 C 
ATOM     13  C   UNL     1      51.759 159.032  30.012  0.00  0.00    +0.053 C 
ATOM     14  C   UNL     1      50.970 160.183  30.014  0.00  0.00    +0.067 C 
ATOM     15  C   UNL     1      49.610 160.058  30.015  0.00  0.00    +0.016 C 
ATOM     16  C   UNL     1      49.057 158.793  30.013  0.00  0.00    +0.004 C 
ATOM     17  C   UNL     1      49.849 157.687  30.010  0.00  0.00    +0.038 C 
BRANCH  14  18
ATOM     18  N   UNL     1      51.593 161.456  30.018  0.00  0.00    -0.222 N 
ATOM     19  H   UNL     1      51.481 162.053  29.243  0.00  0.00    +0.173 HD
BRANCH  18  20
ATOM     20  S   UNL     1      52.537 161.972  31.348  0.00  0.00    +0.033 S 
ATOM     21  O   UNL     1      52.154 161.315  32.618  0.00  0.00    -0.158 OA
ATOM     22  O   UNL     1      52.363 163.464  31.468  0.00  0.00    -0.158 OA
ATOM     23  H   UNL     1      53.834 161.629  31.124  0.00  0.00    +0.233 HD
ENDBRANCH  18  20
ENDBRANCH  14  18
ENDBRANCH  11  12
ENDBRANCH   1  11
BRANCH   3  24
ATOM     24  O   UNL     1      53.968 155.266  25.858  0.00  0.00    -0.377 OA
BRANCH  24  25
ATOM     25  N   UNL     1      54.205 154.265  24.945  0.00  0.00    -0.115 N 
ATOM     26  C   UNL     1      55.385 153.432  24.810  0.00  0.00    +0.163 C 
ATOM     27  C   UNL     1      55.082 152.529  23.673  0.00  0.00    +0.004 C 
ATOM     28  C   UNL     1      53.886 152.773  23.177  0.00  0.00    +0.058 C 
ATOM     29  C   UNL     1      53.288 153.856  23.939  0.00  0.00    +0.280 C 
ATOM     30  O   UNL     1      52.134 154.373  23.755  0.00  0.00    -0.267 OA
ENDBRANCH  24  25
ENDBRANCH   3  24
BRANCH   2  31
ATOM     31  O   UNL     1      53.561 157.223  27.765  0.00  0.00    -0.444 OA
BRANCH  31  32
ATOM     32  C   UNL     1      53.769 157.654  26.464  0.00  0.00    +0.180 C 
ATOM     33  C   UNL     1      54.981 157.786  25.948  0.00  0.00    +0.044 C 
ENDBRANCH  31  32
ENDBRANCH   2  31
TORSDOF 10
