REMARK  Name = =
REMARK  12 active torsions:
REMARK  status: ('A' for Active; 'I' for Inactive)
REMARK    1  A    between atoms: C_1  and  O_10
REMARK    2  A    between atoms: C_2  and  O_28
REMARK    3  A    between atoms: C_3  and  O_21
REMARK    4  A    between atoms: C_5  and  O_9
REMARK    5  A    between atoms: C_6  and  C_7
REMARK    6  A    between atoms: O_10  and  C_11
REMARK    7  A    between atoms: C_13  and  N_17
REMARK    8  A    between atoms: N_17  and  S_18
REMARK    9  A    between atoms: O_21  and  N_22
REMARK   10  A    between atoms: O_28  and  C_29
REMARK   11  A    between atoms: C_29  and  N_31
REMARK   12  A    between atoms: N_31  and  N_32
REMARK                            x       y       z     vdW  Elec       q    Type
REMARK                         _______ _______ _______ _____ _____    ______ ____
ROOT
ATOM      1  C   UNL     1      51.173 157.091  28.910  0.00  0.00    +0.189 C 
ATOM      2  C   UNL     1      52.194 156.238  28.511  0.00  0.00    +0.218 C 
ATOM      3  C   UNL     1      52.114 154.873  28.693  0.00  0.00    +0.211 C 
ATOM      4  C   UNL     1      50.974 154.378  29.289  0.00  0.00    +0.080 C 
ATOM      5  C   UNL     1      49.958 155.228  29.686  0.00  0.00    +0.143 C 
ATOM      6  C   UNL     1      50.035 156.592  29.505  0.00  0.00    +0.114 C 
ENDROOT
BRANCH   6   7
ATOM      7  C   UNL     1      48.939 157.476  29.936  0.00  0.00    +0.240 C 
ATOM      8  O   UNL     1      48.108 157.944  29.152  0.00  0.00    -0.283 OA
ENDBRANCH   6   7
BRANCH   5   9
ATOM      9  O   UNL     1      48.811 154.725  30.286  0.00  0.00    -0.505 OA
ATOM     10  H   UNL     1      48.721 153.803  30.426  0.00  0.00    +0.292 HD
ENDBRANCH   5   9
BRANCH   1  11
ATOM     11  O   UNL     1      51.324 158.437  28.697  0.00  0.00    -0.450 OA
BRANCH  11  12
ATOM     12  C   UNL     1      51.698 159.354  29.648  0.00  0.00    +0.147 C 
ATOM     13  C   UNL     1      53.023 159.739  29.720  0.00  0.00    +0.053 C 
ATOM     14  C   UNL     1      53.462 160.658  30.655  0.00  0.00    +0.067 C 
ATOM     15  C   UNL     1      52.568 161.215  31.547  0.00  0.00    +0.016 C 
ATOM     16  C   UNL     1      51.234 160.849  31.497  0.00  0.00    +0.004 C 
ATOM     17  C   UNL     1      50.821 159.922  30.547  0.00  0.00    +0.038 C 
BRANCH  14  18
ATOM     18  N   UNL     1      54.829 161.068  30.746  0.00  0.00    -0.222 N 
ATOM     19  H   UNL     1      55.503 160.579  30.221  0.00  0.00    +0.173 HD
BRANCH  18  20
ATOM     20  S   UNL     1      55.344 162.373  31.730  0.00  0.00    +0.033 S 
ATOM     21  O   UNL     1      55.929 161.876  33.016  0.00  0.00    -0.158 OA
ATOM     22  O   UNL     1      54.212 163.299  32.080  0.00  0.00    -0.158 OA
ATOM     23  H   UNL     1      56.276 163.045  31.002  0.00  0.00    +0.233 HD
ENDBRANCH  18  20
ENDBRANCH  14  18
ENDBRANCH  11  12
ENDBRANCH   1  11
BRANCH   3  24
ATOM     24  O   UNL     1      53.150 154.020  28.286  0.00  0.00    -0.377 OA
BRANCH  24  25
ATOM     25  N   UNL     1      52.898 152.881  27.581  0.00  0.00    -0.115 N 
ATOM     26  C   UNL     1      51.801 151.964  27.787  0.00  0.00    +0.163 C 
ATOM     27  C   UNL     1      52.037 150.941  26.751  0.00  0.00    +0.004 C 
ATOM     28  C   UNL     1      53.099 151.185  26.031  0.00  0.00    +0.058 C 
ATOM     29  C   UNL     1      53.703 152.410  26.502  0.00  0.00    +0.280 C 
ATOM     30  O   UNL     1      54.751 152.955  26.037  0.00  0.00    -0.267 OA
ENDBRANCH  24  25
ENDBRANCH   3  24
BRANCH   2  31
ATOM     31  O   UNL     1      53.352 156.721  27.907  0.00  0.00    -0.433 OA
BRANCH  31  32
ATOM     32  C   UNL     1      53.455 156.784  26.511  0.00  0.00    +0.209 C 
ATOM     33  C   UNL     1      54.040 157.804  25.907  0.00  0.00    +0.059 C 
BRANCH  32  34
ATOM     34  N   UNL     1      52.923 155.735  25.706  0.00  0.00    -0.253 N 
ATOM     35  H   UNL     1      52.038 155.357  25.913  0.00  0.00    +0.169 HD
BRANCH  34  36
ATOM     36  N   UNL     1      53.650 155.247  24.633  0.00  0.00    -0.254 NA
ATOM     37  H   UNL     1      54.535 155.749  24.566  0.00  0.00    +0.140 HD
ATOM     38  H   UNL     1      53.118 155.380  23.773  0.00  0.00    +0.140 HD
ENDBRANCH  34  36
ENDBRANCH  32  34
ENDBRANCH  31  32
ENDBRANCH   2  31
TORSDOF 12
