REMARK  Name = =
REMARK  9 active torsions:
REMARK  status: ('A' for Active; 'I' for Inactive)
REMARK    1  A    between atoms: N_1  and  C_21
REMARK    2  A    between atoms: N_1  and  N_35
REMARK    3  A    between atoms: N_4  and  N_5
REMARK    4  A    between atoms: N_7  and  N_9
REMARK    5  A    between atoms: N_8  and  S_13
REMARK    6  A    between atoms: N_8  and  N_16
REMARK    7  A    between atoms: N_16  and  N_19
REMARK    8  A    between atoms: C_21  and  N_33
REMARK    9  A    between atoms: N_33  and  O_34
REMARK                            x       y       z     vdW  Elec       q    Type
REMARK                         _______ _______ _______ _____ _____    ______ ____
ROOT
ATOM      1  N   UNL     1     -15.806 -41.972  25.678  0.00  0.00    -0.142 N 
ATOM      2  C   UNL     1     -14.868 -42.739  26.398  0.00  0.00    +0.339 C 
ATOM      3  O   UNL     1     -13.853 -43.239  25.796  0.00  0.00    -0.249 OA
ATOM      4  N   UNL     1     -14.926 -43.038  27.787  0.00  0.00    -0.209 N 
ATOM      5  H   UNL     1     -15.680 -42.685  28.313  0.00  0.00    +0.177 HD
ENDROOT
BRANCH   4   6
ATOM      6  N   UNL     1     -13.965 -43.807  28.435  0.00  0.00    -0.269 N 
ATOM      7  C   UNL     1     -12.739 -43.236  28.932  0.00  0.00    +0.273 C 
ATOM      8  N   UNL     1     -12.215 -42.333  28.205  0.00  0.00    -0.138 NA
ATOM      9  N   UNL     1     -12.184 -43.677  30.153  0.00  0.00    -0.102 N 
ATOM     10  H   UNL     1     -14.127 -44.770  28.558  0.00  0.00    +0.188 HD
BRANCH   8  11
ATOM     11  N   UNL     1     -11.073 -41.605  28.386  0.00  0.00    -0.188 N 
ATOM     12  C   UNL     1      -9.756 -42.100  28.123  0.00  0.00    +0.317 C 
ATOM     13  O   UNL     1      -9.644 -43.264  27.703  0.00  0.00    -0.251 OA
ATOM     14  N   UNL     1      -8.604 -41.281  28.336  0.00  0.00    -0.312 N 
ATOM     15  H   UNL     1     -11.162 -40.682  28.718  0.00  0.00    +0.179 HD
ATOM     16  H   UNL     1      -8.709 -40.361  28.669  0.00  0.00    +0.147 HD
ATOM     17  H   UNL     1      -7.705 -41.637  28.149  0.00  0.00    +0.147 HD
ENDBRANCH   8  11
BRANCH   9  18
ATOM     18  S   UNL     1     -11.380 -42.639  31.253  0.00  0.00    +0.061 S 
ATOM     19  O   UNL     1     -11.305 -43.245  32.635  0.00  0.00    -0.154 OA
ATOM     20  O   UNL     1     -12.124 -41.329  31.413  0.00  0.00    -0.154 OA
ATOM     21  H   UNL     1     -10.137 -42.445  30.737  0.00  0.00    +0.238 HD
ENDBRANCH   9  18
BRANCH   9  22
ATOM     22  N   UNL     1     -12.294 -45.028  30.521  0.00  0.00    -0.064 N 
ATOM     23  C   UNL     1     -11.160 -45.858  30.420  0.00  0.00    +0.345 C 
ATOM     24  O   UNL     1     -10.078 -45.370  30.004  0.00  0.00    -0.261 OA
BRANCH  22  25
ATOM     25  N   UNL     1     -13.498 -45.570  30.985  0.00  0.00    -0.151 NA
ATOM     26  C   UNL     1     -14.189 -45.033  31.947  0.00  0.00    +0.142 C 
ENDBRANCH  22  25
ENDBRANCH   9  22
ENDBRANCH   4   6
BRANCH   1  27
ATOM     27  C   UNL     1     -16.972 -41.361  26.214  0.00  0.00    +0.207 C 
ATOM     28  C   UNL     1     -17.330 -42.151  27.481  0.00  0.00    +0.051 C 
BRANCH  27  39
ATOM     29  C   UNL     1     -21.962 -42.494  26.497  0.00  0.00    +0.018 C 
ATOM     30  C   UNL     1     -21.141 -43.369  25.814  0.00  0.00    +0.083 C 
ATOM     31  C   UNL     1     -21.612 -44.630  25.534  0.00  0.00    +0.019 C 
ATOM     32  C   UNL     1     -22.875 -45.031  25.918  0.00  0.00    +0.002 C 
ATOM     33  C   UNL     1     -23.712 -44.174  26.602  0.00  0.00    +0.000 C 
ATOM     34  C   UNL     1     -23.236 -42.913  26.879  0.00  0.00    +0.001 C 
ATOM     35  N   UNL     1     -19.890 -42.979  25.428  0.00  0.00    -0.226 NA
ATOM     36  C   UNL     1     -19.397 -41.759  25.680  0.00  0.00    +0.165 C 
ATOM     37  C   UNL     1     -20.226 -40.879  26.368  0.00  0.00    +0.039 C 
ATOM     38  C   UNL     1     -21.491 -41.242  26.770  0.00  0.00    +0.005 C 
ATOM     39  N   UNL     1     -18.100 -41.327  25.306  0.00  0.00    -0.207 N 
BRANCH  39  40
ATOM     40  O   UNL     1     -17.947 -40.858  24.043  0.00  0.00    -0.283 OA
ATOM     41  H   UNL     1     -18.795 -40.906  23.575  0.00  0.00    +0.245 HD
ENDBRANCH  39  40
ENDBRANCH  27  39
ENDBRANCH   1  27
BRANCH   1  42
ATOM     42  N   UNL     1     -15.572 -41.787  24.300  0.00  0.00    +0.056 NA
ATOM     43  O   UNL     1     -15.895 -42.699  23.482  0.00  0.00    -0.078 OA
ENDBRANCH   1  42
TORSDOF 9
