REMARK  Name = =
REMARK  1 active torsions:
REMARK  status: ('A' for Active; 'I' for Inactive)
REMARK    1  A    between atoms: N_1  and  N_8
REMARK                            x       y       z     vdW  Elec       q    Type
REMARK                         _______ _______ _______ _____ _____    ______ ____
ROOT
ATOM      1  N   UNL     1      53.313 154.240  26.778  0.00  0.00    -0.168 N 
ATOM      2  C   UNL     1      52.672 152.987  27.049  0.00  0.00    +0.245 C 
ATOM      3  O   UNL     1      53.092 151.815  26.939  0.00  0.00    -0.273 OA
ATOM      4  C   UNL     1      51.278 153.272  27.536  0.00  0.00    +0.097 C 
ATOM      5  C   UNL     1      51.318 154.705  28.000  0.00  0.00    +0.097 C 
ATOM      6  C   UNL     1      52.698 155.168  27.629  0.00  0.00    +0.245 C 
ATOM      7  O   UNL     1      53.190 156.232  28.041  0.00  0.00    -0.273 OA
ENDROOT
BRANCH   1   8
ATOM      8  N   UNL     1      54.300 154.421  25.857  0.00  0.00    -0.196 NA
ATOM      9  C   UNL     1      55.110 153.330  25.496  0.00  0.00    +0.093 C 
ATOM     10  C   UNL     1      54.616 152.526  24.321  0.00  0.00    +0.019 C 
ATOM     11  C   UNL     1      54.078 153.361  23.203  0.00  0.00    +0.003 C 
ATOM     12  C   UNL     1      53.111 154.378  23.821  0.00  0.00    +0.019 C 
ATOM     13  C   UNL     1      53.968 155.228  24.733  0.00  0.00    +0.093 C 
ENDBRANCH   1   8
TORSDOF 1
