REMARK  Name = =
REMARK  2 active torsions:
REMARK  status: ('A' for Active; 'I' for Inactive)
REMARK    1  A    between atoms: N_1  and  N_8
REMARK    2  A    between atoms: C_4  and  C_14
REMARK                            x       y       z     vdW  Elec       q    Type
REMARK                         _______ _______ _______ _____ _____    ______ ____
ROOT
ATOM      1  N   UNL     1      53.045 154.180  25.561  0.00  0.00    -0.168 N 
ATOM      2  C   UNL     1      53.639 153.443  24.469  0.00  0.00    +0.246 C 
ATOM      3  O   UNL     1      53.612 152.201  24.280  0.00  0.00    -0.273 OA
ATOM      4  C   UNL     1      54.290 154.462  23.616  0.00  0.00    +0.102 C 
ATOM      5  C   UNL     1      54.673 155.517  24.668  0.00  0.00    +0.097 C 
ATOM      6  C   UNL     1      53.406 155.548  25.438  0.00  0.00    +0.245 C 
ATOM      7  O   UNL     1      52.777 156.520  25.889  0.00  0.00    -0.273 OA
ENDROOT
BRANCH   1   8
ATOM      8  N   UNL     1      52.259 153.556  26.522  0.00  0.00    -0.196 NA
ATOM      9  C   UNL     1      53.019 152.900  27.540  0.00  0.00    +0.093 C 
ATOM     10  C   UNL     1      52.487 153.134  28.937  0.00  0.00    +0.019 C 
ATOM     11  C   UNL     1      52.254 154.583  29.244  0.00  0.00    +0.003 C 
ATOM     12  C   UNL     1      51.577 155.315  28.117  0.00  0.00    +0.019 C 
ATOM     13  C   UNL     1      51.197 154.345  27.042  0.00  0.00    +0.093 C 
ENDBRANCH   1   8
BRANCH   4  14
ATOM     14  C   UNL     1      55.479 153.956  22.861  0.00  0.00    +0.065 C 
ATOM     15  C   UNL     1      56.171 155.013  22.034  0.00  0.00    +0.033 C 
ATOM     16  C   UNL     1      55.703 154.315  20.777  0.00  0.00    +0.070 C 
ATOM     17  N   UNL     1      55.027 153.351  21.601  0.00  0.00    -0.298 NA
ATOM     18  H   UNL     1      55.368 152.399  21.468  0.00  0.00    +0.123 HD
ENDBRANCH   4  14
TORSDOF 2
