REMARK  Name = =
REMARK  3 active torsions:
REMARK  status: ('A' for Active; 'I' for Inactive)
REMARK    1  A    between atoms: C_1  and  N_5
REMARK    2  A    between atoms: C_1  and  C_17
REMARK    3  A    between atoms: N_14  and  N_21
REMARK                            x       y       z     vdW  Elec       q    Type
REMARK                         _______ _______ _______ _____ _____    ______ ____
ROOT
ATOM      1  C   UNL     1      53.435 153.268  26.228  0.00  0.00    +0.113 C 
ATOM      2  C   UNL     1      54.117 152.384  27.270  0.00  0.00    +0.051 C 
ATOM      3  C   UNL     1      54.930 151.970  26.033  0.00  0.00    +0.073 C 
ATOM      4  N   UNL     1      53.695 152.240  25.272  0.00  0.00    -0.285 NA
ATOM      5  H   UNL     1      53.018 151.477  25.268  0.00  0.00    +0.125 HD
ENDROOT
BRANCH   1   6
ATOM      6  N   UNL     1      54.215 154.450  25.910  0.00  0.00    -0.279 N 
ATOM      7  C   UNL     1      54.034 155.144  24.680  0.00  0.00    +0.305 C 
ATOM      8  O   UNL     1      53.144 154.625  23.914  0.00  0.00    -0.253 OA
ATOM      9  N   UNL     1      54.741 156.296  24.294  0.00  0.00    -0.259 N 
ATOM     10  C   UNL     1      54.422 156.899  23.007  0.00  0.00    +0.127 C 
ATOM     11  C   UNL     1      54.467 158.409  23.082  0.00  0.00    +0.164 C 
ATOM     12  O   UNL     1      55.457 158.885  23.916  0.00  0.00    -0.350 OA
ATOM     13  C   UNL     1      55.425 158.381  25.191  0.00  0.00    +0.164 C 
ATOM     14  C   UNL     1      55.742 156.882  25.110  0.00  0.00    +0.127 C 
ATOM     15  H   UNL     1      54.881 154.778  26.556  0.00  0.00    +0.152 HD
ENDBRANCH   1   6
BRANCH   1  19
ATOM     16  N   UNL     1      52.024 154.669  28.630  0.00  0.00    -0.168 N 
ATOM     17  C   UNL     1      51.815 154.854  27.230  0.00  0.00    +0.248 C 
ATOM     18  O   UNL     1      51.523 155.930  26.664  0.00  0.00    -0.273 OA
ATOM     19  C   UNL     1      52.000 153.553  26.523  0.00  0.00    +0.118 C 
ATOM     20  C   UNL     1      51.591 152.544  27.616  0.00  0.00    +0.099 C 
ATOM     21  C   UNL     1      52.102 153.260  28.830  0.00  0.00    +0.245 C 
ATOM     22  O   UNL     1      52.526 152.614  29.845  0.00  0.00    -0.273 OA
BRANCH  16  23
ATOM     23  N   UNL     1      52.142 155.607  29.636  0.00  0.00    -0.196 NA
ATOM     24  C   UNL     1      52.824 156.795  29.250  0.00  0.00    +0.093 C 
ATOM     25  C   UNL     1      52.045 158.058  29.298  0.00  0.00    +0.019 C 
ATOM     26  C   UNL     1      50.566 157.935  29.207  0.00  0.00    +0.003 C 
ATOM     27  C   UNL     1      49.997 156.761  29.924  0.00  0.00    +0.019 C 
ATOM     28  C   UNL     1      50.998 155.794  30.458  0.00  0.00    +0.093 C 
ENDBRANCH  16  23
ENDBRANCH   1  19
TORSDOF 3
