REMARK  Name = =
REMARK  3 active torsions:
REMARK  status: ('A' for Active; 'I' for Inactive)
REMARK    1  A    between atoms: C_1  and  N_5
REMARK    2  A    between atoms: C_1  and  C_19
REMARK    3  A    between atoms: N_16  and  N_23
REMARK                            x       y       z     vdW  Elec       q    Type
REMARK                         _______ _______ _______ _____ _____    ______ ____
ROOT
ATOM      1  C   UNL     1      51.738 155.703  28.598  0.00  0.00    +0.122 C 
ATOM      2  C   UNL     1      52.137 154.978  29.896  0.00  0.00    +0.052 C 
ATOM      3  C   UNL     1      51.202 153.893  29.475  0.00  0.00    +0.073 C 
ATOM      4  N   UNL     1      50.621 154.804  28.502  0.00  0.00    -0.284 NA
ATOM      5  H   UNL     1      50.505 154.393  27.576  0.00  0.00    +0.125 HD
ENDROOT
BRANCH   1   6
ATOM      6  N   UNL     1      51.409 157.096  28.896  0.00  0.00    -0.217 N 
ATOM      7  C   UNL     1      50.120 157.381  29.359  0.00  0.00    +0.313 C 
ATOM      8  O   UNL     1      49.355 156.347  29.588  0.00  0.00    -0.252 OA
ATOM      9  N   UNL     1      49.498 158.607  29.622  0.00  0.00    -0.259 N 
ATOM     10  C   UNL     1      50.000 159.945  29.415  0.00  0.00    +0.127 C 
ATOM     11  C   UNL     1      50.163 160.562  30.768  0.00  0.00    +0.164 C 
ATOM     12  O   UNL     1      49.033 160.425  31.565  0.00  0.00    -0.350 OA
ATOM     13  C   UNL     1      47.921 159.938  30.935  0.00  0.00    +0.164 C 
ATOM     14  C   UNL     1      48.125 158.625  30.213  0.00  0.00    +0.127 C 
ATOM     15  C   UNL     1      52.394 158.104  28.803  0.00  0.00    +0.163 C 
ATOM     16  N   UNL     1      52.919 158.723  29.819  0.00  0.00    -0.282 NA
ATOM     17  H   UNL     1      53.603 159.416  29.673  0.00  0.00    +0.188 HD
ENDBRANCH   1   6
BRANCH   1  21
ATOM     18  N   UNL     1      53.251 155.649  25.306  0.00  0.00    -0.168 N 
ATOM     19  C   UNL     1      52.291 155.145  26.225  0.00  0.00    +0.248 C 
ATOM     20  O   UNL     1      51.214 154.540  25.897  0.00  0.00    -0.273 OA
ATOM     21  C   UNL     1      52.776 155.449  27.575  0.00  0.00    +0.118 C 
ATOM     22  C   UNL     1      53.780 156.527  27.402  0.00  0.00    +0.099 C 
ATOM     23  C   UNL     1      53.900 156.750  25.915  0.00  0.00    +0.245 C 
ATOM     24  O   UNL     1      54.480 157.744  25.398  0.00  0.00    -0.273 OA
BRANCH  18  25
ATOM     25  N   UNL     1      53.547 155.185  24.021  0.00  0.00    -0.196 NA
ATOM     26  C   UNL     1      53.464 153.798  23.860  0.00  0.00    +0.093 C 
ATOM     27  C   UNL     1      54.296 153.175  22.799  0.00  0.00    +0.019 C 
ATOM     28  C   UNL     1      55.719 153.725  22.982  0.00  0.00    +0.003 C 
ATOM     29  C   UNL     1      55.609 155.193  22.644  0.00  0.00    +0.019 C 
ATOM     30  C   UNL     1      54.544 155.909  23.366  0.00  0.00    +0.093 C 
ENDBRANCH  18  25
ENDBRANCH   1  21
TORSDOF 3
