REMARK  Name = =
REMARK  3 active torsions:
REMARK  status: ('A' for Active; 'I' for Inactive)
REMARK    1  A    between atoms: C_1  and  N_5
REMARK    2  A    between atoms: C_1  and  C_20
REMARK    3  A    between atoms: N_17  and  N_24
REMARK                            x       y       z     vdW  Elec       q    Type
REMARK                         _______ _______ _______ _____ _____    ______ ____
ROOT
ATOM      1  C   UNL     1      51.552 156.242  29.142  0.00  0.00    +0.123 C 
ATOM      2  C   UNL     1      52.574 155.998  30.252  0.00  0.00    +0.052 C 
ATOM      3  C   UNL     1      51.448 155.324  31.036  0.00  0.00    +0.073 C 
ATOM      4  N   UNL     1      50.576 155.668  29.954  0.00  0.00    -0.284 NA
ATOM      5  H   UNL     1      50.141 154.851  29.526  0.00  0.00    +0.125 HD
ENDROOT
BRANCH   1   6
ATOM      6  N   UNL     1      51.994 155.414  27.984  0.00  0.00    -0.205 N 
ATOM      7  C   UNL     1      52.596 156.059  26.909  0.00  0.00    +0.314 C 
ATOM      8  O   UNL     1      52.680 157.359  27.030  0.00  0.00    -0.252 OA
ATOM      9  N   UNL     1      53.117 155.550  25.748  0.00  0.00    -0.259 N 
ATOM     10  C   UNL     1      53.706 156.517  24.778  0.00  0.00    +0.127 C 
ATOM     11  C   UNL     1      55.182 156.242  24.632  0.00  0.00    +0.164 C 
ATOM     12  O   UNL     1      55.428 154.871  24.531  0.00  0.00    -0.350 OA
ATOM     13  C   UNL     1      54.263 154.195  24.162  0.00  0.00    +0.164 C 
ATOM     14  C   UNL     1      53.221 154.183  25.281  0.00  0.00    +0.127 C 
ATOM     15  C   UNL     1      51.792 154.013  27.993  0.00  0.00    +0.191 C 
ATOM     16  N   UNL     1      51.011 153.476  27.111  0.00  0.00    -0.270 NA
ATOM     17  N   UNL     1      52.421 153.174  28.957  0.00  0.00    -0.371 N 
ATOM     18  H   UNL     1      50.568 154.041  26.437  0.00  0.00    +0.190 HD
ATOM     19  H   UNL     1      53.018 153.565  29.635  0.00  0.00    +0.159 HD
ATOM     20  H   UNL     1      52.259 152.203  28.945  0.00  0.00    +0.159 HD
ENDBRANCH   1   6
BRANCH   1  24
ATOM     21  N   UNL     1      50.757 159.435  30.219  0.00  0.00    -0.168 N 
ATOM     22  C   UNL     1      51.850 158.645  29.731  0.00  0.00    +0.248 C 
ATOM     23  O   UNL     1      53.039 158.787  30.095  0.00  0.00    -0.273 OA
ATOM     24  C   UNL     1      51.349 157.672  28.753  0.00  0.00    +0.119 C 
ATOM     25  C   UNL     1      49.835 157.877  28.668  0.00  0.00    +0.099 C 
ATOM     26  C   UNL     1      49.614 159.120  29.425  0.00  0.00    +0.245 C 
ATOM     27  O   UNL     1      48.545 159.812  29.374  0.00  0.00    -0.273 OA
BRANCH  21  28
ATOM     28  N   UNL     1      50.876 160.303  31.256  0.00  0.00    -0.196 NA
ATOM     29  C   UNL     1      50.445 159.902  32.535  0.00  0.00    +0.093 C 
ATOM     30  C   UNL     1      49.495 160.868  33.201  0.00  0.00    +0.019 C 
ATOM     31  C   UNL     1      50.226 162.200  33.295  0.00  0.00    +0.003 C 
ATOM     32  C   UNL     1      50.498 162.651  31.883  0.00  0.00    +0.019 C 
ATOM     33  C   UNL     1      51.228 161.632  31.045  0.00  0.00    +0.093 C 
ENDBRANCH  21  28
ENDBRANCH   1  24
TORSDOF 3
