REMARK  Name = =
REMARK  5 active torsions:
REMARK  status: ('A' for Active; 'I' for Inactive)
REMARK    1  A    between atoms: C_1  and  N_5
REMARK    2  A    between atoms: C_1  and  C_22
REMARK    3  A    between atoms: N_16  and  N_17
REMARK    4  A    between atoms: N_17  and  N_18
REMARK    5  A    between atoms: N_19  and  N_26
REMARK                            x       y       z     vdW  Elec       q    Type
REMARK                         _______ _______ _______ _____ _____    ______ ____
ROOT
ATOM      1  C   UNL     1      51.166 155.815  29.176  0.00  0.00    +0.123 C 
ATOM      2  C   UNL     1      51.819 155.056  30.286  0.00  0.00    +0.052 C 
ATOM      3  C   UNL     1      50.514 154.339  30.537  0.00  0.00    +0.073 C 
ATOM      4  N   UNL     1      49.938 155.113  29.473  0.00  0.00    -0.284 NA
ATOM      5  H   UNL     1      49.605 154.542  28.696  0.00  0.00    +0.125 HD
ENDROOT
BRANCH   1   6
ATOM      6  N   UNL     1      50.995 157.241  29.519  0.00  0.00    -0.204 N 
ATOM      7  C   UNL     1      49.687 157.717  29.722  0.00  0.00    +0.314 C 
ATOM      8  O   UNL     1      48.699 156.864  29.694  0.00  0.00    -0.252 OA
ATOM      9  N   UNL     1      49.274 159.030  29.956  0.00  0.00    -0.259 N 
ATOM     10  C   UNL     1      50.170 160.147  29.984  0.00  0.00    +0.127 C 
ATOM     11  C   UNL     1      49.306 161.354  29.525  0.00  0.00    +0.164 C 
ATOM     12  O   UNL     1      48.366 161.669  30.473  0.00  0.00    -0.350 OA
ATOM     13  C   UNL     1      47.800 160.548  31.074  0.00  0.00    +0.164 C 
ATOM     14  C   UNL     1      47.870 159.322  30.190  0.00  0.00    +0.127 C 
ATOM     15  C   UNL     1      52.162 158.015  29.689  0.00  0.00    +0.210 C 
ATOM     16  N   UNL     1      52.505 158.502  30.863  0.00  0.00    -0.269 NA
ATOM     17  N   UNL     1      53.066 158.345  28.630  0.00  0.00    -0.260 N 
ATOM     18  H   UNL     1      51.943 158.327  31.652  0.00  0.00    +0.190 HD
ATOM     19  H   UNL     1      52.694 158.536  27.739  0.00  0.00    +0.186 HD
BRANCH  17  20
ATOM     20  N   UNL     1      54.440 158.408  28.800  0.00  0.00    -0.051 NA
BRANCH  20  21
ATOM     21  N   UNL     1      54.902 159.536  29.448  0.00  0.00    -0.233 NA
ATOM     22  H   UNL     1      55.918 159.492  29.525  0.00  0.00    +0.140 HD
ATOM     23  H   UNL     1      54.492 159.584  30.381  0.00  0.00    +0.140 HD
ENDBRANCH  20  21
ENDBRANCH  17  20
ENDBRANCH   1   6
BRANCH   1  27
ATOM     24  N   UNL     1      52.629 154.403  26.141  0.00  0.00    -0.153 N 
ATOM     25  C   UNL     1      51.892 154.255  27.363  0.00  0.00    +0.250 C 
ATOM     26  O   UNL     1      51.608 153.129  27.827  0.00  0.00    -0.273 OA
ATOM     27  C   UNL     1      51.627 155.635  27.811  0.00  0.00    +0.119 C 
ATOM     28  C   UNL     1      52.958 156.293  27.461  0.00  0.00    +0.099 C 
ATOM     29  C   UNL     1      53.131 155.737  26.076  0.00  0.00    +0.248 C 
ATOM     30  O   UNL     1      53.622 156.376  25.120  0.00  0.00    -0.273 OA
BRANCH  24  31
ATOM     31  N   UNL     1      52.891 153.504  25.123  0.00  0.00    -0.228 N 
ATOM     32  C   UNL     1      53.854 153.928  24.178  0.00  0.00    +0.113 C 
ATOM     33  C   UNL     1      55.201 153.397  24.679  0.00  0.00    +0.028 C 
ATOM     34  C   UNL     1      55.129 151.909  24.552  0.00  0.00    +0.029 C 
ATOM     35  C   UNL     1      53.958 151.281  25.220  0.00  0.00    -0.009 C 
ATOM     36  C   UNL     1      52.746 152.146  25.356  0.00  0.00    +0.076 C 
ENDBRANCH  24  31
ENDBRANCH   1  27
TORSDOF 5
