MODEL 1
REMARK VINA RESULT:    -9.422      0.000      0.000
REMARK INTER + INTRA:         -15.937
REMARK INTER:                 -13.553
REMARK INTRA:                  -2.384
REMARK UNBOUND:                -2.384
REMARK  Name = =
REMARK  9 active torsions:
REMARK  status: ('A' for Active; 'I' for Inactive)
REMARK    1  A    between atoms: C_1  and  C_29
REMARK    2  A    between atoms: C_3  and  C_18
REMARK    3  A    between atoms: C_21  and  S_24
REMARK    4  A    between atoms: S_24  and  C_25
REMARK    5  A    between atoms: C_25  and  N_27
REMARK    6  A    between atoms: CA_28  and  N_36
REMARK    7  A    between atoms: CA_28  and  C_37
REMARK    8  A    between atoms: C_29  and  C_30
REMARK    9  A    between atoms: C_37  and  OXT_39
REMARK                            x       y       z     vdW  Elec       q    Type
REMARK                         _______ _______ _______ _____ _____    ______ ____
ROOT
ATOM      1  C   UNL     1       1.139  -4.366  28.005  0.00  0.00    +0.032 C 
ATOM      2  C   UNL     1       0.440  -5.547  27.312  0.00  0.00    +0.013 C 
ATOM      3  C   UNL     1       0.203  -6.742  28.124  0.00  0.00    +0.040 C 
ATOM      4  C   UNL     1      -0.050  -6.518  29.570  0.00  0.00    -0.027 C 
ATOM      5  C   UNL     1      -0.961  -7.427  30.269  0.00  0.00    -0.030 C 
ATOM      6  C   UNL     1      -2.232  -6.919  30.772  0.00  0.00    -0.027 C 
ATOM      7  C   UNL     1      -3.111  -7.970  31.268  0.00  0.00    +0.022 C 
ATOM      8  C   UNL     1      -2.485  -8.648  32.474  0.00  0.00    +0.004 C 
ATOM      9  C   UNL     1      -3.293  -8.181  33.659  0.00  0.00    +0.000 C 
ATOM     10  C   UNL     1      -4.404  -7.331  33.147  0.00  0.00    +0.000 C 
ATOM     11  C   UNL     1      -4.479  -7.629  31.695  0.00  0.00    +0.004 C 
ATOM     12  C   UNL     1      -1.064  -8.100  32.651  0.00  0.00    +0.005 C 
ATOM     13  C   UNL     1      -0.301  -8.267  31.346  0.00  0.00    +0.026 C 
ATOM     14  C   UNL     1      -2.655  -5.553  30.632  0.00  0.00    -0.005 C 
ATOM     15  C   UNL     1      -1.542  -4.653  30.222  0.00  0.00    -0.005 C 
ATOM     16  C   UNL     1      -0.419  -5.099  29.762  0.00  0.00    -0.026 C 
ATOM     17  C   UNL     1       0.672  -4.132  29.352  0.00  0.00    +0.031 C 
ENDROOT
BRANCH   3  18
ATOM     18  C   UNL     1       1.176  -7.864  27.945  0.00  0.00    -0.045 C 
ATOM     19  C   UNL     1       2.484  -7.752  28.028  0.00  0.00    -0.033 C 
ATOM     20  C   UNL     1       3.447  -8.849  27.855  0.00  0.00    +0.037 C 
ATOM     21  C   UNL     1       2.908 -10.101  27.211  0.00  0.00    +0.058 C 
ATOM     22  C   UNL     1       1.546  -9.874  26.591  0.00  0.00    +0.016 C 
ATOM     23  C   UNL     1       0.659  -9.227  27.641  0.00  0.00    +0.023 C 
BRANCH  21  24
ATOM     24  S   UNL     1       4.042 -10.718  25.934  0.00  0.00    -0.093 S 
BRANCH  24  25
ATOM     25  C   UNL     1       4.321 -12.446  26.181  0.00  0.00    +0.105 C 
ATOM     26  S   UNL     1       3.105 -13.457  26.510  0.00  0.00    -0.028 S 
BRANCH  25  27
ATOM     27  N   UNL     1       5.637 -12.987  26.114  0.00  0.00    -0.347 N 
ATOM     28  H   UNL     1       5.809 -13.799  25.584  0.00  0.00    +0.143 HD
ATOM     29  H   UNL     1       6.375 -12.549  26.596  0.00  0.00    +0.143 HD
ENDBRANCH  25  27
ENDBRANCH  24  25
ENDBRANCH  21  24
ENDBRANCH   3  18
BRANCH   1  31
ATOM     30  CA  UNL     1       0.275  -2.392  26.597  0.00  0.00    +0.117 C 
ATOM     31  C   UNL     1       1.102  -3.291  27.020  0.00  0.00    +0.033 C 
BRANCH  31  32
ATOM     32  C   UNL     1       2.475  -3.084  26.348  0.00  0.00    +0.160 C 
ATOM     33  N   UNL     1       3.387  -2.354  26.970  0.00  0.00    -0.225 NA
ATOM     34  C   UNL     1       4.619  -2.166  26.405  0.00  0.00    +0.102 C 
ATOM     35  C   UNL     1       4.882  -2.743  25.197  0.00  0.00    +0.041 C 
ATOM     36  C   UNL     1       3.915  -3.502  24.561  0.00  0.00    +0.102 C 
ATOM     37  N   UNL     1       2.701  -3.645  25.191  0.00  0.00    -0.225 NA
ENDBRANCH  31  32
BRANCH  30  38
ATOM     38  N   UNL     1       0.870  -1.414  25.607  0.00  0.00    -0.352 N 
ATOM     39  H1  UNL     1       0.336  -0.651  25.287  0.00  0.00    +0.143 HD
ATOM     40  H2  UNL     1       1.791  -1.540  25.284  0.00  0.00    +0.143 HD
ENDBRANCH  30  38
BRANCH  30  41
ATOM     41  C   UNL     1      -1.113  -2.163  26.770  0.00  0.00    +0.351 C 
ATOM     42  O   UNL     1      -1.839  -2.164  25.678  0.00  0.00    -0.244 OA
BRANCH  41  43
ATOM     43  OXT UNL     1      -1.872  -1.938  27.875  0.00  0.00    -0.476 OA
ATOM     44  HXT UNL     1      -1.469  -1.650  28.670  0.00  0.00    +0.295 HD
ENDBRANCH  41  43
ENDBRANCH  30  41
ENDBRANCH   1  31
TORSDOF 9
ENDMDL
