REMARK  Name = =
REMARK  2 active torsions:
REMARK  status: ('A' for Active; 'I' for Inactive)
REMARK    1  A    between atoms: N_1  and  C_14
REMARK    2  A    between atoms: C_6  and  N_7
REMARK                            x       y       z     vdW  Elec       q    Type
REMARK                         _______ _______ _______ _____ _____    ______ ____
ROOT
ATOM      1  N   UNL     1     -14.384 -42.877  26.438  0.00  0.00    -0.223 NA
ATOM      2  C   UNL     1     -13.972 -43.968  25.672  0.00  0.00    +0.109 C 
ATOM      3  C   UNL     1     -14.441 -43.930  24.230  0.00  0.00    +0.160 C 
ATOM      4  O   UNL     1     -15.641 -43.270  24.061  0.00  0.00    -0.349 OA
ATOM      5  C   UNL     1     -15.416 -41.927  24.438  0.00  0.00    +0.175 C 
ATOM      6  C   UNL     1     -15.347 -41.985  25.980  0.00  0.00    +0.152 C 
ENDROOT
BRANCH   6   7
ATOM      7  N   UNL     1     -16.723 -42.378  26.344  0.00  0.00    -0.254 NA
ATOM      8  C   UNL     1     -17.145 -41.837  27.597  0.00  0.00    +0.106 C 
ATOM      9  C   UNL     1     -18.595 -42.194  27.794  0.00  0.00    +0.160 C 
ATOM     10  O   UNL     1     -19.408 -41.553  26.889  0.00  0.00    -0.351 OA
ATOM     11  C   UNL     1     -18.743 -41.076  25.771  0.00  0.00    +0.160 C 
ATOM     12  C   UNL     1     -17.621 -41.969  25.314  0.00  0.00    +0.106 C 
ENDBRANCH   6   7
BRANCH   1  14
ATOM     13  O   UNL     1     -12.175 -42.722  27.306  0.00  0.00    -0.435 OA
ATOM     14  C   UNL     1     -13.593 -42.633  27.572  0.00  0.00    +0.243 C 
ATOM     15  C   UNL     1     -13.331 -43.785  28.514  0.00  0.00    +0.171 C 
ATOM     16  C   UNL     1     -11.909 -43.828  28.049  0.00  0.00    +0.323 C 
ATOM     17  O   UNL     1     -11.022 -44.673  28.374  0.00  0.00    -0.250 OA
ENDBRANCH   1  14
TORSDOF 2
