REMARK  Name = =
REMARK  0 active torsions:
REMARK  status: ('A' for Active; 'I' for Inactive)
REMARK                            x       y       z     vdW  Elec       q    Type
REMARK                         _______ _______ _______ _____ _____    ______ ____
ROOT
ATOM      1  C   UNL     1      -4.500  -4.786  30.435  0.00  0.00    +0.052 C 
ATOM      2  C   UNL     1      -4.949  -3.690  31.333  0.00  0.00    -0.026 C 
ATOM      3  C   UNL     1      -4.453  -2.329  30.993  0.00  0.00    -0.026 C 
ATOM      4  C   UNL     1      -3.361  -2.269  29.978  0.00  0.00    +0.052 C 
ATOM      5  C   UNL     1      -2.490  -3.451  30.022  0.00  0.00    -0.021 C 
ATOM      6  C   UNL     1      -3.030  -4.700  30.245  0.00  0.00    -0.021 C 
ATOM      7  C   UNL     1      -2.256  -5.839  30.295  0.00  0.00    -0.004 C 
ATOM      8  C   UNL     1      -0.872  -5.730  30.113  0.00  0.00    -0.000 C 
ATOM      9  C   UNL     1      -0.310  -4.489  29.888  0.00  0.00    -0.000 C 
ATOM     10  C   UNL     1      -1.108  -3.378  29.845  0.00  0.00    -0.004 C 
ENDROOT
TORSDOF 0
