REMARK  Name = =
REMARK  0 active torsions:
REMARK  status: ('A' for Active; 'I' for Inactive)
REMARK                            x       y       z     vdW  Elec       q    Type
REMARK                         _______ _______ _______ _____ _____    ______ ____
ROOT
ATOM      1  N   UNL     1      -4.076  -3.695  30.955  0.00  0.00    -0.304 N 
ATOM      2  C   UNL     1      -5.103  -3.423  31.977  0.00  0.00    +0.090 C 
ATOM      3  C   UNL     1      -4.439  -4.113  33.179  0.00  0.00    +0.031 C 
ATOM      4  C   UNL     1      -4.071  -5.420  32.497  0.00  0.00    +0.087 C 
ATOM      5  C   UNL     1      -3.407  -4.900  31.283  0.00  0.00    +0.223 C 
ATOM      6  O   UNL     1      -2.454  -5.458  30.708  0.00  0.00    -0.275 OA
ATOM      7  H   UNL     1      -3.886  -3.130  30.171  0.00  0.00    +0.149 HD
ENDROOT
TORSDOF 0
