REMARK  Name = =
REMARK  1 active torsions:
REMARK  status: ('A' for Active; 'I' for Inactive)
REMARK    1  A    between atoms: C_1  and  N_11
REMARK                            x       y       z     vdW  Elec       q    Type
REMARK                         _______ _______ _______ _____ _____    ______ ____
ROOT
ATOM      1  C   UNL     1      -3.478  -6.090  32.273  0.00  0.00    +0.080 C 
ATOM      2  C   UNL     1      -3.291  -5.872  33.763  0.00  0.00    +0.021 C 
ATOM      3  C   UNL     1      -2.726  -7.065  34.474  0.00  0.00    +0.006 C 
ATOM      4  C   UNL     1      -1.293  -7.220  33.944  0.00  0.00    +0.026 C 
ATOM      5  C   UNL     1      -1.492  -7.611  32.499  0.00  0.00    -0.025 C 
ATOM      6  C   UNL     1      -2.516  -7.086  31.746  0.00  0.00    -0.012 C 
ATOM      7  C   UNL     1      -2.677  -7.478  30.426  0.00  0.00    -0.003 C 
ATOM      8  C   UNL     1      -1.791  -8.400  29.896  0.00  0.00    -0.000 C 
ATOM      9  C   UNL     1      -0.776  -8.916  30.649  0.00  0.00    -0.000 C 
ATOM     10  C   UNL     1      -0.625  -8.515  31.974  0.00  0.00    -0.005 C 
ENDROOT
BRANCH   1  11
ATOM     11  N   UNL     1      -3.293  -4.832  31.664  0.00  0.00    -0.273 NA
ATOM     12  C   UNL     1      -4.452  -4.126  31.231  0.00  0.00    +0.058 C 
ATOM     13  C   UNL     1      -4.468  -4.177  29.715  0.00  0.00    +0.017 C 
ATOM     14  C   UNL     1      -3.174  -4.861  29.340  0.00  0.00    +0.017 C 
ATOM     15  C   UNL     1      -2.364  -4.678  30.628  0.00  0.00    +0.058 C 
ATOM     16  C   UNL     1      -1.869  -3.258  30.602  0.00  0.00    +0.016 C 
ATOM     17  C   UNL     1      -2.886  -2.219  30.877  0.00  0.00    +0.003 C 
ATOM     18  C   UNL     1      -4.141  -2.654  31.556  0.00  0.00    +0.016 C 
ENDBRANCH   1  11
TORSDOF 1
