REMARK  Name = =
REMARK  4 active torsions:
REMARK  status: ('A' for Active; 'I' for Inactive)
REMARK    1  A    between atoms: C_1  and  N_11
REMARK    2  A    between atoms: C_8  and  O_19
REMARK    3  A    between atoms: O_19  and  C_20
REMARK    4  A    between atoms: C_20  and  O_22
REMARK                            x       y       z     vdW  Elec       q    Type
REMARK                         _______ _______ _______ _____ _____    ______ ____
ROOT
ATOM      1  C   UNL     1      -2.768  -5.478  32.398  0.00  0.00    +0.080 C 
ATOM      2  C   UNL     1      -3.357  -6.031  33.671  0.00  0.00    +0.021 C 
ATOM      3  C   UNL     1      -4.370  -7.096  33.499  0.00  0.00    +0.006 C 
ATOM      4  C   UNL     1      -4.357  -7.827  32.196  0.00  0.00    +0.026 C 
ATOM      5  C   UNL     1      -3.134  -7.672  31.417  0.00  0.00    -0.025 C 
ATOM      6  C   UNL     1      -2.333  -6.564  31.476  0.00  0.00    -0.009 C 
ATOM      7  C   UNL     1      -1.192  -6.485  30.710  0.00  0.00    +0.034 C 
ATOM      8  C   UNL     1      -0.800  -7.513  29.849  0.00  0.00    +0.152 C 
ATOM      9  C   UNL     1      -1.605  -8.614  29.798  0.00  0.00    +0.037 C 
ATOM     10  C   UNL     1      -2.749  -8.688  30.568  0.00  0.00    -0.001 C 
ENDROOT
BRANCH   1  11
ATOM     11  N   UNL     1      -3.614  -4.612  31.767  0.00  0.00    -0.273 NA
ATOM     12  C   UNL     1      -3.669  -3.246  32.074  0.00  0.00    +0.058 C 
ATOM     13  C   UNL     1      -4.980  -2.796  31.426  0.00  0.00    +0.017 C 
ATOM     14  C   UNL     1      -5.511  -4.009  30.670  0.00  0.00    +0.017 C 
ATOM     15  C   UNL     1      -4.227  -4.844  30.545  0.00  0.00    +0.058 C 
ATOM     16  C   UNL     1      -3.430  -4.208  29.443  0.00  0.00    +0.016 C 
ATOM     17  C   UNL     1      -2.740  -2.959  29.765  0.00  0.00    +0.003 C 
ATOM     18  C   UNL     1      -2.558  -2.624  31.209  0.00  0.00    +0.016 C 
ENDBRANCH   1  11
BRANCH   8  19
ATOM     19  O   UNL     1       0.356  -7.348  29.122  0.00  0.00    -0.394 OA
BRANCH  19  20
ATOM     20  C   UNL     1       1.581  -7.113  29.724  0.00  0.00    +0.513 C 
ATOM     21  O   UNL     1       1.615  -6.846  30.965  0.00  0.00    -0.203 OA
BRANCH  20  22
ATOM     22  O   UNL     1       2.717  -7.180  28.945  0.00  0.00    -0.449 OA
ATOM     23  H   UNL     1       3.558  -7.025  29.328  0.00  0.00    +0.299 HD
ENDBRANCH  20  22
ENDBRANCH  19  20
ENDBRANCH   8  19
TORSDOF 4
