REMARK  Name = =
REMARK  5 active torsions:
REMARK  status: ('A' for Active; 'I' for Inactive)
REMARK    1  A    between atoms: C_1  and  N_11
REMARK    2  A    between atoms: C_8  and  O_19
REMARK    3  A    between atoms: O_19  and  C_20
REMARK    4  A    between atoms: C_20  and  O_22
REMARK    5  A    between atoms: O_22  and  C_23
REMARK                            x       y       z     vdW  Elec       q    Type
REMARK                         _______ _______ _______ _____ _____    ______ ____
ROOT
ATOM      1  C   UNL     1      -1.907  -6.961  30.434  0.00  0.00    +0.080 C 
ATOM      2  C   UNL     1      -1.078  -8.108  30.886  0.00  0.00    +0.021 C 
ATOM      3  C   UNL     1      -1.972  -8.993  31.759  0.00  0.00    +0.006 C 
ATOM      4  C   UNL     1      -1.980  -8.293  33.125  0.00  0.00    +0.026 C 
ATOM      5  C   UNL     1      -2.595  -6.956  32.875  0.00  0.00    -0.025 C 
ATOM      6  C   UNL     1      -2.556  -6.353  31.639  0.00  0.00    -0.009 C 
ATOM      7  C   UNL     1      -3.135  -5.100  31.410  0.00  0.00    +0.034 C 
ATOM      8  C   UNL     1      -3.771  -4.419  32.423  0.00  0.00    +0.152 C 
ATOM      9  C   UNL     1      -3.806  -5.028  33.659  0.00  0.00    +0.037 C 
ATOM     10  C   UNL     1      -3.238  -6.264  33.894  0.00  0.00    -0.001 C 
ENDROOT
BRANCH   1  11
ATOM     11  N   UNL     1      -1.328  -5.978  29.672  0.00  0.00    -0.269 NA
ATOM     12  C   UNL     1      -1.022  -6.144  28.321  0.00  0.00    +0.062 C 
ATOM     13  C   UNL     1      -0.776  -4.687  27.884  0.00  0.00    +0.018 C 
ATOM     14  C   UNL     1      -0.231  -4.052  29.155  0.00  0.00    +0.022 C 
ATOM     15  C   UNL     1      -0.270  -5.193  30.189  0.00  0.00    +0.080 C 
ATOM     16  C   UNL     1       1.090  -5.834  30.138  0.00  0.00    -0.015 C 
ATOM     17  C   UNL     1       1.314  -6.773  29.018  0.00  0.00    -0.028 C 
ATOM     18  C   UNL     1       0.241  -6.882  28.010  0.00  0.00    +0.042 C 
ENDBRANCH   1  11
BRANCH   8  19
ATOM     19  O   UNL     1      -4.350  -3.174  32.210  0.00  0.00    -0.393 OA
BRANCH  19  20
ATOM     20  C   UNL     1      -5.689  -3.051  31.817  0.00  0.00    +0.521 C 
ATOM     21  O   UNL     1      -6.130  -3.934  31.049  0.00  0.00    -0.202 OA
BRANCH  20  22
ATOM     22  O   UNL     1      -6.523  -2.044  32.217  0.00  0.00    -0.393 OA
BRANCH  22  23
ATOM     23  C   UNL     1      -7.862  -1.945  31.916  0.00  0.00    +0.152 C 
ATOM     24  C   UNL     1      -8.309  -1.092  30.943  0.00  0.00    +0.035 C 
ATOM     25  C   UNL     1      -9.651  -0.977  30.626  0.00  0.00    -0.006 C 
ATOM     26  C   UNL     1     -10.571  -1.746  31.312  0.00  0.00    -0.009 C 
ATOM     27  C   UNL     1     -10.134  -2.612  32.299  0.00  0.00    -0.000 C 
ATOM     28  C   UNL     1      -8.778  -2.710  32.600  0.00  0.00    +0.037 C 
ATOM     29  C   UNL     1     -11.943  -1.428  30.776  0.00  0.00    +0.096 C 
ATOM     30  N   UNL     1     -11.733  -0.074  30.300  0.00  0.00    -0.290 NA
ATOM     31  C   UNL     1     -10.436  -0.176  29.655  0.00  0.00    +0.096 C 
ATOM     32  H   UNL     1     -11.711   0.591  31.073  0.00  0.00    +0.124 HD
ENDBRANCH  22  23
ENDBRANCH  20  22
ENDBRANCH  19  20
ENDBRANCH   8  19
TORSDOF 5
