REMARK  Name = =
REMARK  6 active torsions:
REMARK  status: ('A' for Active; 'I' for Inactive)
REMARK    1  A    between atoms: C_1  and  O_3
REMARK    2  A    between atoms: C_1  and  O_22
REMARK    3  A    between atoms: O_3  and  C_11
REMARK    4  A    between atoms: C_4  and  N_14
REMARK    5  A    between atoms: O_22  and  C_23
REMARK    6  A    between atoms: C_31  and  C_32
REMARK                            x       y       z     vdW  Elec       q    Type
REMARK                         _______ _______ _______ _____ _____    ______ ____
ROOT
ATOM      1  C   UNL     1      -1.937  -3.857  30.491  0.00  0.00    +0.521 C 
ATOM      2  O   UNL     1      -2.410  -4.979  30.742  0.00  0.00    -0.202 OA
ENDROOT
BRANCH   1   3
ATOM      3  O   UNL     1      -2.462  -2.761  31.174  0.00  0.00    -0.393 OA
BRANCH   3  11
ATOM      4  C   UNL     1      -7.161  -1.332  30.891  0.00  0.00    +0.080 C 
ATOM      5  C   UNL     1      -8.411  -2.172  31.045  0.00  0.00    +0.021 C 
ATOM      6  C   UNL     1      -8.820  -2.400  32.456  0.00  0.00    +0.006 C 
ATOM      7  C   UNL     1      -7.708  -2.705  33.396  0.00  0.00    +0.026 C 
ATOM      8  C   UNL     1      -6.370  -2.685  32.769  0.00  0.00    -0.025 C 
ATOM      9  C   UNL     1      -6.076  -2.045  31.588  0.00  0.00    -0.009 C 
ATOM     10  C   UNL     1      -4.798  -2.072  31.068  0.00  0.00    +0.034 C 
ATOM     11  C   UNL     1      -3.752  -2.728  31.687  0.00  0.00    +0.152 C 
ATOM     12  C   UNL     1      -4.057  -3.369  32.875  0.00  0.00    +0.037 C 
ATOM     13  C   UNL     1      -5.334  -3.346  33.401  0.00  0.00    -0.001 C 
BRANCH   4  14
ATOM     14  N   UNL     1      -7.347   0.023  31.229  0.00  0.00    -0.273 NA
ATOM     15  C   UNL     1      -7.637   0.356  32.577  0.00  0.00    +0.058 C 
ATOM     16  C   UNL     1      -6.332   0.779  33.226  0.00  0.00    +0.017 C 
ATOM     17  C   UNL     1      -5.460   1.203  32.089  0.00  0.00    +0.017 C 
ATOM     18  C   UNL     1      -6.330   0.951  30.850  0.00  0.00    +0.058 C 
ATOM     19  C   UNL     1      -7.060   2.288  30.614  0.00  0.00    +0.016 C 
ATOM     20  C   UNL     1      -8.452   2.250  31.172  0.00  0.00    +0.003 C 
ATOM     21  C   UNL     1      -8.514   1.620  32.539  0.00  0.00    +0.016 C 
ENDBRANCH   4  14
ENDBRANCH   3  11
ENDBRANCH   1   3
BRANCH   1  22
ATOM     22  O   UNL     1      -0.931  -3.755  29.561  0.00  0.00    -0.393 OA
BRANCH  22  23
ATOM     23  C   UNL     1      -0.002  -4.754  29.310  0.00  0.00    +0.152 C 
ATOM     24  C   UNL     1      -0.072  -5.582  28.224  0.00  0.00    +0.035 C 
ATOM     25  C   UNL     1       0.891  -6.580  28.010  0.00  0.00    -0.004 C 
ATOM     26  C   UNL     1       1.935  -6.758  28.886  0.00  0.00    -0.009 C 
ATOM     27  C   UNL     1       2.009  -5.925  29.983  0.00  0.00    -0.000 C 
ATOM     28  C   UNL     1       1.062  -4.946  30.190  0.00  0.00    +0.037 C 
ATOM     29  C   UNL     1       2.802  -7.887  28.384  0.00  0.00    +0.096 C 
ATOM     30  N   UNL     1       2.454  -7.879  26.953  0.00  0.00    -0.288 NA
ATOM     31  C   UNL     1       1.041  -7.603  26.945  0.00  0.00    +0.118 C 
ATOM     32  H   UNL     1       2.650  -8.785  26.526  0.00  0.00    +0.124 HD
BRANCH  31  33
ATOM     33  C   UNL     1       0.296  -8.849  27.366  0.00  0.00    +0.187 C 
ATOM     34  O   UNL     1      -1.071  -8.776  26.955  0.00  0.00    -0.451 OA
ATOM     35  C   UNL     1      -1.391  -9.102  25.637  0.00  0.00    +0.317 C 
ATOM     36  O   UNL     1      -2.575  -8.922  25.291  0.00  0.00    -0.250 OA
ATOM     37  C   UNL     1      -0.423  -9.630  24.665  0.00  0.00    +0.110 C 
ATOM     38  C   UNL     1       0.877 -10.068  25.263  0.00  0.00    +0.015 C 
ATOM     39  C   UNL     1       0.839 -10.108  26.774  0.00  0.00    +0.046 C 
ENDBRANCH  31  33
ENDBRANCH  22  23
ENDBRANCH   1  22
TORSDOF 6
