REMARK  Name = =
REMARK  9 active torsions:
REMARK  status: ('A' for Active; 'I' for Inactive)
REMARK    1  A    between atoms: C_1  and  O_24
REMARK    2  A    between atoms: C_2  and  N_7
REMARK    3  A    between atoms: C_3  and  O_23
REMARK    4  A    between atoms: C_5  and  O_22
REMARK    5  A    between atoms: C_6  and  C_14
REMARK    6  A    between atoms: C_14  and  C_16
REMARK    7  A    between atoms: O_24  and  N_25
REMARK    8  A    between atoms: C_26  and  N_31
REMARK    9  A    between atoms: N_31  and  C_32
REMARK                            x       y       z     vdW  Elec       q    Type
REMARK                         _______ _______ _______ _____ _____    ______ ____
ROOT
ATOM      1  C   UNL     1       0.219  -7.229  29.120  0.00  0.00    +0.189 C 
ATOM      2  C   UNL     1      -0.886  -7.707  29.780  0.00  0.00    +0.127 C 
ATOM      3  C   UNL     1      -1.298  -9.003  29.498  0.00  0.00    +0.153 C 
ATOM      4  C   UNL     1      -0.646  -9.787  28.606  0.00  0.00    +0.074 C 
ATOM      5  C   UNL     1       0.487  -9.314  27.925  0.00  0.00    +0.138 C 
ATOM      6  C   UNL     1       0.934  -8.051  28.163  0.00  0.00    +0.084 C 
ENDROOT
BRANCH   2   7
ATOM      7  N   UNL     1      -1.561  -6.939  30.761  0.00  0.00    -0.228 N 
ATOM      8  C   UNL     1      -2.594  -5.972  30.578  0.00  0.00    +0.185 C 
ATOM      9  C   UNL     1      -3.140  -5.659  31.924  0.00  0.00    +0.250 C 
ATOM     10  O   UNL     1      -4.183  -4.989  32.177  0.00  0.00    -0.273 OA
ATOM     11  N   UNL     1      -2.267  -6.261  32.868  0.00  0.00    -0.238 N 
ATOM     12  C   UNL     1      -1.309  -7.036  32.165  0.00  0.00    +0.314 C 
ATOM     13  O   UNL     1      -0.394  -7.697  32.735  0.00  0.00    -0.252 OA
ATOM     14  H   UNL     1      -2.318  -6.158  33.846  0.00  0.00    +0.159 HD
ENDBRANCH   2   7
BRANCH   6  15
ATOM     15  C   UNL     1       2.111  -7.504  27.560  0.00  0.00    +0.198 C 
ATOM     16  O   UNL     1       3.181  -7.704  28.381  0.00  0.00    -0.214 OA
BRANCH  15  17
ATOM     17  C   UNL     1       2.570  -6.834  26.415  0.00  0.00    -0.014 C 
ATOM     18  C   UNL     1       2.001  -6.412  25.320  0.00  0.00    -0.032 C 
ATOM     19  C   UNL     1       2.838  -5.696  24.258  0.00  0.00    +0.025 C 
ATOM     20  C   UNL     1       4.008  -6.541  23.876  0.00  0.00    +0.005 C 
ATOM     21  C   UNL     1       4.540  -7.274  25.113  0.00  0.00    +0.005 C 
ATOM     22  C   UNL     1       4.113  -6.489  26.365  0.00  0.00    +0.025 C 
ENDBRANCH  15  17
ENDBRANCH   6  15
BRANCH   5  23
ATOM     23  O   UNL     1       1.090 -10.180  27.028  0.00  0.00    -0.506 OA
ATOM     24  H   UNL     1       1.849  -9.907  26.551  0.00  0.00    +0.292 HD
ENDBRANCH   5  23
BRANCH   3  25
ATOM     25  O   UNL     1      -2.419  -9.449  30.183  0.00  0.00    -0.504 OA
ATOM     26  H   UNL     1      -2.850  -8.885  30.794  0.00  0.00    +0.292 HD
ENDBRANCH   3  25
BRANCH   1  27
ATOM     27  O   UNL     1       0.680  -5.999  29.315  0.00  0.00    -0.378 OA
BRANCH  27  28
ATOM     28  N   UNL     1       0.579  -4.736  28.981  0.00  0.00    -0.106 N 
ATOM     29  C   UNL     1       1.380  -3.653  29.568  0.00  0.00    +0.187 C 
ATOM     30  C   UNL     1       0.429  -2.499  29.647  0.00  0.00    +0.054 C 
ATOM     31  C   UNL     1      -0.494  -2.725  28.464  0.00  0.00    +0.092 C 
ATOM     32  C   UNL     1      -0.224  -4.080  27.988  0.00  0.00    +0.258 C 
ATOM     33  O   UNL     1      -0.605  -4.598  26.926  0.00  0.00    -0.272 OA
BRANCH  29  34
ATOM     34  N   UNL     1       2.415  -3.254  28.603  0.00  0.00    -0.316 N 
ATOM     35  H   UNL     1       3.240  -3.788  28.535  0.00  0.00    +0.148 HD
BRANCH  34  36
ATOM     36  C   UNL     1       2.254  -2.119  27.768  0.00  0.00    +0.049 C 
ATOM     37  C   UNL     1       2.366  -2.260  26.404  0.00  0.00    +0.035 C 
ATOM     38  C   UNL     1       2.225  -1.204  25.534  0.00  0.00    +0.100 C 
ATOM     39  N   UNL     1       1.969   0.016  26.019  0.00  0.00    -0.242 NA
ATOM     40  C   UNL     1       1.851   0.199  27.353  0.00  0.00    +0.100 C 
ATOM     41  C   UNL     1       1.991  -0.860  28.250  0.00  0.00    +0.035 C 
ENDBRANCH  34  36
ENDBRANCH  29  34
ENDBRANCH  27  28
ENDBRANCH   1  27
TORSDOF 9
