REMARK  Name = =
REMARK  10 active torsions:
REMARK  status: ('A' for Active; 'I' for Inactive)
REMARK    1  A    between atoms: C_1  and  O_30
REMARK    2  A    between atoms: C_2  and  N_7
REMARK    3  A    between atoms: C_3  and  O_29
REMARK    4  A    between atoms: C_4  and  C_14
REMARK    5  A    between atoms: C_5  and  O_28
REMARK    6  A    between atoms: C_6  and  C_20
REMARK    7  A    between atoms: C_20  and  C_22
REMARK    8  A    between atoms: O_30  and  N_31
REMARK    9  A    between atoms: C_32  and  N_37
REMARK   10  A    between atoms: N_37  and  C_38
REMARK                            x       y       z     vdW  Elec       q    Type
REMARK                         _______ _______ _______ _____ _____    ______ ____
ROOT
ATOM      1  C   UNL     1       1.370  -7.391  27.859  0.00  0.00    +0.189 A 
ATOM      2  C   UNL     1       0.689  -6.457  28.653  0.00  0.00    +0.126 A 
ATOM      3  C   UNL     1      -0.369  -6.785  29.439  0.00  0.00    +0.151 A 
ATOM      4  C   UNL     1      -0.790  -8.097  29.461  0.00  0.00    +0.073 A 
ATOM      5  C   UNL     1      -0.165  -9.096  28.690  0.00  0.00    +0.137 A 
ATOM      6  C   UNL     1       0.899  -8.758  27.891  0.00  0.00    +0.083 A 
ENDROOT
BRANCH   2   7
ATOM      7  N   UNL     1       1.123  -5.103  28.602  0.00  0.00    -0.228 N 
ATOM      8  C   UNL     1       0.526  -4.168  27.634  0.00  0.00    +0.185 C 
ATOM      9  C   UNL     1       0.866  -2.861  28.270  0.00  0.00    +0.250 C 
ATOM     10  O   UNL     1       0.239  -1.807  27.998  0.00  0.00    -0.273 OA
ATOM     11  N   UNL     1       1.950  -3.053  29.166  0.00  0.00    -0.238 N 
ATOM     12  C   UNL     1       2.107  -4.434  29.370  0.00  0.00    +0.314 C 
ATOM     13  O   UNL     1       2.975  -5.007  30.112  0.00  0.00    -0.252 OA
ATOM     14  H   UNL     1       2.496  -2.342  29.573  0.00  0.00    +0.159 HD
ENDBRANCH   2   7
BRANCH   4  15
ATOM     15  C   UNL     1      -1.961  -8.412  30.307  0.00  0.00    +0.143 C 
ATOM     16  C   UNL     1      -1.537  -8.911  31.643  0.00  0.00    +0.034 C 
ATOM     17  C   UNL     1      -2.250  -8.252  32.813  0.00  0.00    +0.005 C 
ATOM     18  C   UNL     1      -3.476  -7.482  32.504  0.00  0.00    +0.032 C 
ATOM     19  C   UNL     1      -3.973  -7.848  31.116  0.00  0.00    +0.143 C 
ATOM     20  O   UNL     1      -2.905  -7.432  30.268  0.00  0.00    -0.352 OA
ENDBRANCH   4  15
BRANCH   6  21
ATOM     21  C   UNL     1       1.373  -9.570  26.833  0.00  0.00    +0.198 C 
ATOM     22  O   UNL     1       1.913 -10.702  27.267  0.00  0.00    -0.214 OA
BRANCH  21  23
ATOM     23  C   UNL     1       1.473  -9.477  25.374  0.00  0.00    -0.014 C 
ATOM     24  C   UNL     1       1.490  -8.398  24.657  0.00  0.00    -0.032 C 
ATOM     25  C   UNL     1       1.583  -8.294  23.171  0.00  0.00    +0.025 C 
ATOM     26  C   UNL     1       2.329  -9.487  22.603  0.00  0.00    +0.005 C 
ATOM     27  C   UNL     1       1.788 -10.765  23.200  0.00  0.00    +0.005 C 
ATOM     28  C   UNL     1       1.595 -10.804  24.636  0.00  0.00    +0.025 C 
ENDBRANCH  21  23
ENDBRANCH   6  21
BRANCH   5  29
ATOM     29  O   UNL     1      -0.655 -10.326  28.805  0.00  0.00    -0.506 OA
ATOM     30  H   UNL     1      -1.385 -10.489  29.369  0.00  0.00    +0.292 HD
ENDBRANCH   5  29
BRANCH   3  31
ATOM     31  O   UNL     1      -1.003  -5.801  30.201  0.00  0.00    -0.504 OA
ATOM     32  H   UNL     1      -0.699  -4.915  30.169  0.00  0.00    +0.292 HD
ENDBRANCH   3  31
BRANCH   1  33
ATOM     33  O   UNL     1       2.381  -7.008  27.147  0.00  0.00    -0.378 OA
BRANCH  33  34
ATOM     34  N   UNL     1       3.392  -6.507  26.575  0.00  0.00    -0.106 N 
ATOM     35  C   UNL     1       3.526  -5.339  25.688  0.00  0.00    +0.187 C 
ATOM     36  C   UNL     1       4.396  -5.952  24.582  0.00  0.00    +0.054 C 
ATOM     37  C   UNL     1       5.396  -6.803  25.309  0.00  0.00    +0.092 C 
ATOM     38  C   UNL     1       4.793  -6.976  26.639  0.00  0.00    +0.258 C 
ATOM     39  O   UNL     1       5.354  -7.440  27.669  0.00  0.00    -0.272 OA
BRANCH  35  40
ATOM     40  N   UNL     1       4.312  -4.290  26.319  0.00  0.00    -0.316 N 
ATOM     41  H   UNL     1       4.703  -4.435  27.211  0.00  0.00    +0.148 HD
BRANCH  40  42
ATOM     42  C   UNL     1       4.516  -3.043  25.638  0.00  0.00    +0.049 C 
ATOM     43  C   UNL     1       3.479  -2.389  25.009  0.00  0.00    +0.035 C 
ATOM     44  C   UNL     1       3.816  -1.207  24.332  0.00  0.00    +0.100 C 
ATOM     45  N   UNL     1       5.071  -0.758  24.311  0.00  0.00    -0.242 NA
ATOM     46  C   UNL     1       6.098  -1.376  24.917  0.00  0.00    +0.100 C 
ATOM     47  C   UNL     1       5.793  -2.555  25.598  0.00  0.00    +0.035 C 
ENDBRANCH  40  42
ENDBRANCH  35  40
ENDBRANCH  33  34
ENDBRANCH   1  33
TORSDOF 10
