REMARK  Name = =
REMARK  1 active torsions:
REMARK  status: ('A' for Active; 'I' for Inactive)
REMARK    1  A    between atoms: C_9  and  O_11
REMARK                            x       y       z     vdW  Elec       q    Type
REMARK                         _______ _______ _______ _____ _____    ______ ____
ROOT
ATOM      1  C   UNL     1      50.640 154.653  28.810  0.00  0.00    +0.026 C 
ATOM      2  C   UNL     1      51.915 153.834  28.564  0.00  0.00    +0.005 C 
ATOM      3  C   UNL     1      52.583 154.521  27.375  0.00  0.00    +0.005 C 
ATOM      4  C   UNL     1      53.309 155.719  27.925  0.00  0.00    +0.026 C 
ATOM      5  C   UNL     1      52.333 156.517  28.711  0.00  0.00    -0.023 C 
ATOM      6  C   UNL     1      51.110 156.036  29.118  0.00  0.00    -0.026 C 
ATOM      7  C   UNL     1      50.239 156.828  29.849  0.00  0.00    -0.001 C 
ATOM      8  C   UNL     1      50.616 158.118  30.166  0.00  0.00    +0.036 C 
ATOM      9  C   UNL     1      51.834 158.641  29.777  0.00  0.00    +0.133 C 
ATOM     10  C   UNL     1      52.676 157.824  29.051  0.00  0.00    +0.032 C 
ENDROOT
BRANCH   9  11
ATOM     11  O   UNL     1      52.156 159.941  30.126  0.00  0.00    -0.506 OA
ATOM     12  H   UNL     1      51.550 160.457  30.621  0.00  0.00    +0.292 HD
ENDBRANCH   9  11
TORSDOF 1
