REMARK  Name = =
REMARK  2 active torsions:
REMARK  status: ('A' for Active; 'I' for Inactive)
REMARK    1  A    between atoms: C_9  and  O_11
REMARK    2  A    between atoms: O_11  and  N_12
REMARK                            x       y       z     vdW  Elec       q    Type
REMARK                         _______ _______ _______ _____ _____    ______ ____
ROOT
ATOM      1  C   UNL     1      50.502 154.594  28.702  0.00  0.00    +0.026 C 
ATOM      2  C   UNL     1      51.742 154.381  27.911  0.00  0.00    +0.005 C 
ATOM      3  C   UNL     1      52.135 155.678  27.187  0.00  0.00    +0.005 C 
ATOM      4  C   UNL     1      52.608 156.649  28.246  0.00  0.00    +0.026 C 
ATOM      5  C   UNL     1      51.480 156.874  29.183  0.00  0.00    -0.023 C 
ATOM      6  C   UNL     1      50.533 155.913  29.369  0.00  0.00    -0.026 C 
ATOM      7  C   UNL     1      49.490 156.182  30.269  0.00  0.00    -0.001 C 
ATOM      8  C   UNL     1      49.442 157.385  30.932  0.00  0.00    +0.039 C 
ATOM      9  C   UNL     1      50.387 158.373  30.760  0.00  0.00    +0.165 C 
ATOM     10  C   UNL     1      51.398 158.086  29.874  0.00  0.00    +0.035 C 
ENDROOT
BRANCH   9  11
ATOM     11  O   UNL     1      50.255 159.538  31.465  0.00  0.00    -0.401 OA
BRANCH  11  12
ATOM     12  N   UNL     1      49.562 160.637  31.103  0.00  0.00    -0.116 NA
ATOM     13  C   UNL     1      48.222 160.706  31.609  0.00  0.00    +0.145 C 
ATOM     14  C   UNL     1      48.112 161.356  32.958  0.00  0.00    +0.163 C 
ATOM     15  O   UNL     1      49.208 162.149  33.271  0.00  0.00    -0.351 OA
ATOM     16  C   UNL     1      49.666 162.855  32.163  0.00  0.00    +0.163 C 
ATOM     17  C   UNL     1      50.291 161.864  31.219  0.00  0.00    +0.145 C 
ENDBRANCH  11  12
ENDBRANCH   9  11
TORSDOF 2
