REMARK  Name = =
REMARK  6 active torsions:
REMARK  status: ('A' for Active; 'I' for Inactive)
REMARK    1  A    between atoms: N_1  and  O_14
REMARK    2  A    between atoms: C_6  and  N_7
REMARK    3  A    between atoms: N_7  and  O_10
REMARK    4  A    between atoms: O_10  and  C_11
REMARK    5  A    between atoms: C_11  and  O_13
REMARK    6  A    between atoms: O_14  and  C_23
REMARK                            x       y       z     vdW  Elec       q    Type
REMARK                         _______ _______ _______ _____ _____    ______ ____
ROOT
ATOM      1  N   UNL     1      50.241 160.452  31.341  0.00  0.00    -0.095 NA
ATOM      2  C   UNL     1      51.041 160.792  32.526  0.00  0.00    +0.147 C 
ATOM      3  C   UNL     1      50.154 160.375  33.709  0.00  0.00    +0.163 C 
ATOM      4  O   UNL     1      48.971 161.072  33.662  0.00  0.00    -0.349 OA
ATOM      5  C   UNL     1      48.906 162.028  32.657  0.00  0.00    +0.185 C 
ATOM      6  C   UNL     1      49.214 161.491  31.291  0.00  0.00    +0.239 C 
ENDROOT
BRANCH   6   7
ATOM      7  N   UNL     1      48.009 161.059  30.632  0.00  0.00    -0.090 N 
ATOM      8  C   UNL     1      47.093 160.234  31.305  0.00  0.00    +0.338 C 
ATOM      9  O   UNL     1      46.032 159.833  30.770  0.00  0.00    -0.262 OA
BRANCH   7  10
ATOM     10  O   UNL     1      47.768 161.456  29.349  0.00  0.00    -0.309 OA
BRANCH  10  11
ATOM     11  C   UNL     1      48.577 161.187  28.278  0.00  0.00    +0.531 C 
ATOM     12  O   UNL     1      49.719 160.676  28.492  0.00  0.00    -0.201 OA
BRANCH  11  13
ATOM     13  O   UNL     1      48.209 161.447  26.946  0.00  0.00    -0.448 OA
ATOM     14  H   UNL     1      47.372 161.824  26.756  0.00  0.00    +0.299 HD
ENDBRANCH  11  13
ENDBRANCH  10  11
ENDBRANCH   7  10
ENDBRANCH   6   7
BRANCH   1  15
ATOM     15  O   UNL     1      49.744 159.201  31.474  0.00  0.00    -0.400 OA
BRANCH  15  24
ATOM     16  C   UNL     1      51.164 155.029  27.982  0.00  0.00    +0.026 C 
ATOM     17  C   UNL     1      52.643 154.757  27.917  0.00  0.00    +0.005 C 
ATOM     18  C   UNL     1      53.501 155.870  28.453  0.00  0.00    +0.005 C 
ATOM     19  C   UNL     1      52.827 157.212  28.142  0.00  0.00    +0.026 C 
ATOM     20  C   UNL     1      51.605 157.221  28.993  0.00  0.00    -0.023 C 
ATOM     21  C   UNL     1      50.791 156.115  28.902  0.00  0.00    -0.026 C 
ATOM     22  C   UNL     1      49.620 156.015  29.661  0.00  0.00    -0.001 C 
ATOM     23  C   UNL     1      49.324 157.061  30.491  0.00  0.00    +0.039 C 
ATOM     24  C   UNL     1      50.112 158.201  30.620  0.00  0.00    +0.165 C 
ATOM     25  C   UNL     1      51.249 158.226  29.841  0.00  0.00    +0.035 C 
ENDBRANCH  15  24
ENDBRANCH   1  15
TORSDOF 6
