REMARK  Name = =
REMARK  0 active torsions:
REMARK  status: ('A' for Active; 'I' for Inactive)
REMARK                            x       y       z     vdW  Elec       q    Type
REMARK                         _______ _______ _______ _____ _____    ______ ____
ROOT
ATOM      1  C   UNL     1      -3.307  -3.912  31.180  0.00  0.00    +0.000 C 
ATOM      2  C   UNL     1      -3.718  -5.359  31.291  0.00  0.00    +0.000 C 
ATOM      3  C   UNL     1      -2.538  -6.214  30.959  0.00  0.00    +0.000 C 
ATOM      4  C   UNL     1      -1.383  -6.075  31.867  0.00  0.00    +0.001 C 
ATOM      5  C   UNL     1      -0.033  -6.009  31.338  0.00  0.00    +0.012 C 
ATOM      6  C   UNL     1       0.818  -7.161  31.660  0.00  0.00    +0.057 C 
ATOM      7  C   UNL     1       1.908  -6.887  32.675  0.00  0.00    +0.120 C 
ATOM      8  O   UNL     1       0.924  -7.160  33.658  0.00  0.00    -0.356 OA
ATOM      9  C   UNL     1       0.524  -8.135  32.712  0.00  0.00    +0.142 C 
ATOM     10  C   UNL     1       2.423  -5.499  32.669  0.00  0.00    +0.030 C 
ATOM     11  C   UNL     1       2.157  -4.888  31.322  0.00  0.00    +0.010 C 
ATOM     12  C   UNL     1       0.656  -4.713  31.181  0.00  0.00    +0.058 C 
ATOM     13  C   UNL     1       0.511  -4.065  29.860  0.00  0.00    +0.150 C 
ATOM     14  O   UNL     1       1.473  -3.445  29.438  0.00  0.00    -0.296 OA
ATOM     15  C   UNL     1      -0.589  -3.964  28.826  0.00  0.00    +0.064 C 
ATOM     16  C   UNL     1      -1.745  -4.633  29.412  0.00  0.00    +0.007 C 
ATOM     17  C   UNL     1      -2.428  -3.661  30.003  0.00  0.00    +0.000 C 
ATOM     18  C   UNL     1      -2.250  -6.025  29.497  0.00  0.00    +0.000 C 
ENDROOT
TORSDOF 0
