REMARK  Name = =
REMARK  2 active torsions:
REMARK  status: ('A' for Active; 'I' for Inactive)
REMARK    1  A    between atoms: C_4  and  N_19
REMARK    2  A    between atoms: N_19  and  O_20
REMARK                            x       y       z     vdW  Elec       q    Type
REMARK                         _______ _______ _______ _____ _____    ______ ____
ROOT
ATOM      1  C   UNL     1      -4.143  -4.200  30.373  0.00  0.00    +0.000 C 
ATOM      2  C   UNL     1      -4.055  -5.711  30.369  0.00  0.00    +0.001 C 
ATOM      3  C   UNL     1      -2.634  -6.083  30.148  0.00  0.00    +0.017 C 
ATOM      4  C   UNL     1      -1.671  -5.693  31.196  0.00  0.00    +0.080 C 
ATOM      5  C   UNL     1      -0.258  -5.856  30.933  0.00  0.00    +0.028 C 
ATOM      6  C   UNL     1       0.414  -7.022  31.569  0.00  0.00    +0.059 C 
ATOM      7  C   UNL     1       1.651  -7.417  30.824  0.00  0.00    +0.118 C 
ATOM      8  O   UNL     1       2.467  -6.672  31.626  0.00  0.00    -0.356 OA
ATOM      9  C   UNL     1       1.454  -6.584  32.564  0.00  0.00    +0.144 C 
ATOM     10  C   UNL     1       1.609  -7.006  29.371  0.00  0.00    +0.030 C 
ATOM     11  C   UNL     1       1.361  -5.557  29.167  0.00  0.00    +0.010 C 
ATOM     12  C   UNL     1       0.588  -4.894  30.284  0.00  0.00    +0.059 C 
ATOM     13  C   UNL     1       0.093  -3.626  29.822  0.00  0.00    +0.150 C 
ATOM     14  O   UNL     1       0.623  -2.633  30.261  0.00  0.00    -0.296 OA
ATOM     15  C   UNL     1      -1.013  -3.248  28.844  0.00  0.00    +0.064 C 
ATOM     16  C   UNL     1      -2.094  -4.204  28.990  0.00  0.00    +0.007 C 
ATOM     17  C   UNL     1      -3.124  -3.557  29.479  0.00  0.00    +0.000 C 
ATOM     18  C   UNL     1      -2.234  -5.652  28.746  0.00  0.00    +0.002 C 
ENDROOT
BRANCH   4  19
ATOM     19  N   UNL     1      -2.033  -6.433  32.396  0.00  0.00    -0.195 NA
ATOM     20  H   UNL     1      -1.671  -7.382  32.307  0.00  0.00    +0.154 HD
BRANCH  19  21
ATOM     21  O   UNL     1      -1.561  -5.912  33.525  0.00  0.00    -0.314 OA
ATOM     22  H   UNL     1      -1.895  -5.007  33.628  0.00  0.00    +0.236 HD
ENDBRANCH  19  21
ENDBRANCH   4  19
TORSDOF 2
