REMARK  Name = =
REMARK  5 active torsions:
REMARK  status: ('A' for Active; 'I' for Inactive)
REMARK    1  A    between atoms: C_4  and  N_29
REMARK    2  A    between atoms: C_17  and  N_19
REMARK    3  A    between atoms: C_20  and  C_22
REMARK    4  A    between atoms: C_26  and  N_28
REMARK    5  A    between atoms: N_29  and  O_30
REMARK                            x       y       z     vdW  Elec       q    Type
REMARK                         _______ _______ _______ _____ _____    ______ ____
ROOT
ATOM      1  C   UNL     1      -4.393  -6.085  30.845  0.00  0.00    +0.020 C 
ATOM      2  C   UNL     1      -2.993  -6.578  30.734  0.00  0.00    +0.003 C 
ATOM      3  C   UNL     1      -1.993  -6.105  31.730  0.00  0.00    +0.017 C 
ATOM      4  C   UNL     1      -0.574  -6.171  31.221  0.00  0.00    +0.080 C 
ATOM      5  C   UNL     1      -0.208  -5.163  30.238  0.00  0.00    +0.028 C 
ATOM      6  C   UNL     1       1.103  -4.500  30.363  0.00  0.00    +0.059 C 
ATOM      7  C   UNL     1       1.784  -4.408  29.016  0.00  0.00    +0.120 C 
ATOM      8  O   UNL     1       2.965  -4.951  29.528  0.00  0.00    -0.356 OA
ATOM      9  C   UNL     1       2.214  -5.542  30.548  0.00  0.00    +0.142 C 
ATOM     10  C   UNL     1       1.083  -5.319  28.007  0.00  0.00    +0.030 C 
ATOM     11  C   UNL     1      -0.334  -4.794  27.838  0.00  0.00    +0.010 C 
ATOM     12  C   UNL     1      -1.086  -4.780  29.151  0.00  0.00    +0.059 C 
ATOM     13  C   UNL     1      -1.900  -3.593  29.234  0.00  0.00    +0.150 C 
ATOM     14  O   UNL     1      -1.715  -2.808  28.339  0.00  0.00    -0.296 OA
ATOM     15  C   UNL     1      -2.976  -3.014  30.165  0.00  0.00    +0.066 C 
ATOM     16  C   UNL     1      -3.132  -4.050  31.200  0.00  0.00    +0.025 C 
ATOM     17  C   UNL     1      -4.317  -4.549  31.008  0.00  0.00    +0.072 C 
ATOM     18  C   UNL     1      -2.266  -4.674  32.235  0.00  0.00    +0.003 C 
ENDROOT
BRANCH  17  19
ATOM     19  N   UNL     1      -5.505  -3.825  31.056  0.00  0.00    -0.301 N 
ATOM     20  C   UNL     1      -6.008  -3.034  32.077  0.00  0.00    +0.264 C 
ATOM     21  O   UNL     1      -5.409  -2.910  33.169  0.00  0.00    -0.268 OA
ATOM     22  H   UNL     1      -6.068  -3.883  30.250  0.00  0.00    +0.150 HD
BRANCH  20  23
ATOM     23  C   UNL     1      -7.278  -2.288  31.947  0.00  0.00    +0.139 C 
ATOM     24  N   UNL     1      -7.241  -0.995  31.609  0.00  0.00    -0.219 NA
ATOM     25  C   UNL     1      -8.314  -0.204  31.457  0.00  0.00    +0.200 C 
ATOM     26  N   UNL     1      -9.513  -0.750  31.659  0.00  0.00    -0.209 NA
ATOM     27  C   UNL     1      -9.622  -2.044  32.000  0.00  0.00    +0.129 C 
ATOM     28  C   UNL     1      -8.493  -2.851  32.153  0.00  0.00    +0.058 C 
BRANCH  27  29
ATOM     29  N   UNL     1     -10.919  -2.561  32.199  0.00  0.00    -0.343 N 
ATOM     30  H   UNL     1     -11.704  -1.978  32.087  0.00  0.00    +0.144 HD
ATOM     31  H   UNL     1     -11.039  -3.505  32.450  0.00  0.00    +0.144 HD
ENDBRANCH  27  29
ENDBRANCH  20  23
ENDBRANCH  17  19
BRANCH   4  32
ATOM     32  N   UNL     1      -0.263  -7.494  30.782  0.00  0.00    -0.195 NA
ATOM     33  H   UNL     1      -0.935  -8.127  31.217  0.00  0.00    +0.154 HD
BRANCH  32  34
ATOM     34  O   UNL     1      -0.287  -7.723  29.481  0.00  0.00    -0.314 OA
ATOM     35  H   UNL     1       0.344  -7.134  29.037  0.00  0.00    +0.236 HD
ENDBRANCH  32  34
ENDBRANCH   4  32
TORSDOF 5
