REMARK  Name = =
REMARK  7 active torsions:
REMARK  status: ('A' for Active; 'I' for Inactive)
REMARK    1  A    between atoms: C_4  and  N_29
REMARK    2  A    between atoms: C_4  and  O_31
REMARK    3  A    between atoms: C_17  and  N_19
REMARK    4  A    between atoms: C_20  and  C_22
REMARK    5  A    between atoms: C_26  and  N_28
REMARK    6  A    between atoms: N_29  and  O_30
REMARK    7  A    between atoms: O_31  and  C_32
REMARK                            x       y       z     vdW  Elec       q    Type
REMARK                         _______ _______ _______ _____ _____    ______ ____
ROOT
ATOM      1  C   UNL     1      -4.468  -6.336  31.225  0.00  0.00    +0.020 C 
ATOM      2  C   UNL     1      -3.212  -7.111  31.072  0.00  0.00    +0.007 C 
ATOM      3  C   UNL     1      -2.010  -6.675  31.817  0.00  0.00    +0.053 C 
ATOM      4  C   UNL     1      -0.717  -6.986  31.097  0.00  0.00    +0.199 C 
ATOM      5  C   UNL     1      -0.415  -6.157  29.947  0.00  0.00    +0.065 C 
ATOM      6  C   UNL     1       0.893  -5.486  29.839  0.00  0.00    +0.062 C 
ATOM      7  C   UNL     1       1.402  -5.412  28.444  0.00  0.00    +0.120 C 
ATOM      8  O   UNL     1       2.154  -6.551  28.539  0.00  0.00    -0.356 OA
ATOM      9  C   UNL     1       2.040  -6.472  29.929  0.00  0.00    +0.142 C 
ATOM     10  C   UNL     1       0.395  -5.306  27.370  0.00  0.00    +0.030 C 
ATOM     11  C   UNL     1      -0.923  -5.956  27.607  0.00  0.00    +0.010 C 
ATOM     12  C   UNL     1      -1.456  -5.732  29.008  0.00  0.00    +0.063 C 
ATOM     13  C   UNL     1      -1.901  -4.345  29.113  0.00  0.00    +0.150 C 
ATOM     14  O   UNL     1      -1.630  -3.593  28.207  0.00  0.00    -0.296 OA
ATOM     15  C   UNL     1      -2.682  -3.560  30.170  0.00  0.00    +0.066 C 
ATOM     16  C   UNL     1      -2.898  -4.512  31.280  0.00  0.00    +0.025 C 
ATOM     17  C   UNL     1      -4.161  -4.833  31.271  0.00  0.00    +0.072 C 
ATOM     18  C   UNL     1      -2.019  -5.204  32.244  0.00  0.00    +0.007 C 
ENDROOT
BRANCH  17  19
ATOM     19  N   UNL     1      -5.205  -3.920  31.390  0.00  0.00    -0.301 N 
ATOM     20  C   UNL     1      -5.215  -2.553  31.680  0.00  0.00    +0.264 C 
ATOM     21  O   UNL     1      -4.137  -1.967  31.920  0.00  0.00    -0.268 OA
ATOM     22  H   UNL     1      -6.098  -4.307  31.243  0.00  0.00    +0.150 HD
BRANCH  20  23
ATOM     23  C   UNL     1      -6.409  -1.709  31.734  0.00  0.00    +0.139 C 
ATOM     24  N   UNL     1      -6.325  -0.365  31.747  0.00  0.00    -0.219 NA
ATOM     25  C   UNL     1      -7.401   0.438  31.795  0.00  0.00    +0.200 C 
ATOM     26  N   UNL     1      -8.638  -0.126  31.832  0.00  0.00    -0.209 NA
ATOM     27  C   UNL     1      -8.811  -1.445  31.822  0.00  0.00    +0.129 C 
ATOM     28  C   UNL     1      -7.658  -2.245  31.771  0.00  0.00    +0.058 C 
BRANCH  27  29
ATOM     29  N   UNL     1     -10.090  -2.064  31.859  0.00  0.00    -0.343 N 
ATOM     30  H   UNL     1     -10.904  -1.511  31.895  0.00  0.00    +0.144 HD
ATOM     31  H   UNL     1     -10.162  -3.046  31.849  0.00  0.00    +0.144 HD
ENDBRANCH  27  29
ENDBRANCH  20  23
ENDBRANCH  17  19
BRANCH   4  32
ATOM     32  N   UNL     1      -0.718  -8.385  30.760  0.00  0.00    -0.161 NA
ATOM     33  H   UNL     1       0.245  -8.699  30.635  0.00  0.00    +0.158 HD
BRANCH  32  34
ATOM     34  O   UNL     1      -1.297  -9.117  31.734  0.00  0.00    -0.312 OA
ATOM     35  H   UNL     1      -2.213  -8.823  31.858  0.00  0.00    +0.236 HD
ENDBRANCH  32  34
ENDBRANCH   4  32
BRANCH   4  36
ATOM     36  O   UNL     1       0.316  -6.806  32.082  0.00  0.00    -0.464 OA
BRANCH  36  37
ATOM     37  C   UNL     1       0.200  -7.304  33.366  0.00  0.00    +0.174 C 
ATOM     38  C   UNL     1       1.123  -8.106  33.869  0.00  0.00    +0.043 C 
ENDBRANCH  36  37
ENDBRANCH   4  36
TORSDOF 7
