REMARK  Name = =
REMARK  8 active torsions:
REMARK  status: ('A' for Active; 'I' for Inactive)
REMARK    1  A    between atoms: C_4  and  N_32
REMARK    2  A    between atoms: C_4  and  O_34
REMARK    3  A    between atoms: C_9  and  C_29
REMARK    4  A    between atoms: C_17  and  N_19
REMARK    5  A    between atoms: C_20  and  C_22
REMARK    6  A    between atoms: C_26  and  N_28
REMARK    7  A    between atoms: N_32  and  O_33
REMARK    8  A    between atoms: O_34  and  C_35
REMARK                            x       y       z     vdW  Elec       q    Type
REMARK                         _______ _______ _______ _____ _____    ______ ____
ROOT
ATOM      1  C   UNL     1      -0.112  -3.696  30.591  0.00  0.00    +0.020 C 
ATOM      2  C   UNL     1       1.032  -4.224  29.803  0.00  0.00    +0.007 C 
ATOM      3  C   UNL     1       0.779  -4.992  28.582  0.00  0.00    +0.053 C 
ATOM      4  C   UNL     1       1.783  -4.797  27.483  0.00  0.00    +0.199 C 
ATOM      5  C   UNL     1       1.981  -3.459  26.955  0.00  0.00    +0.065 C 
ATOM      6  C   UNL     1       2.061  -3.275  25.488  0.00  0.00    +0.062 C 
ATOM      7  C   UNL     1       2.792  -2.017  25.118  0.00  0.00    +0.120 C 
ATOM      8  O   UNL     1       3.985  -2.733  25.156  0.00  0.00    -0.356 OA
ATOM      9  C   UNL     1       3.249  -3.861  24.776  0.00  0.00    +0.145 C 
ATOM     10  C   UNL     1       2.661  -0.874  26.031  0.00  0.00    +0.030 C 
ATOM     11  C   UNL     1       2.405  -1.147  27.466  0.00  0.00    +0.010 C 
ATOM     12  C   UNL     1       1.406  -2.278  27.608  0.00  0.00    +0.063 C 
ATOM     13  C   UNL     1       0.059  -1.876  27.211  0.00  0.00    +0.150 C 
ATOM     14  O   UNL     1      -0.094  -1.041  26.352  0.00  0.00    -0.296 OA
ATOM     15  C   UNL     1      -1.337  -2.309  27.676  0.00  0.00    +0.066 C 
ATOM     16  C   UNL     1      -1.100  -3.575  28.390  0.00  0.00    +0.025 C 
ATOM     17  C   UNL     1      -1.262  -3.309  29.653  0.00  0.00    +0.072 C 
ATOM     18  C   UNL     1      -0.644  -4.940  28.034  0.00  0.00    +0.007 C 
ENDROOT
BRANCH  17  19
ATOM     19  N   UNL     1      -2.445  -2.789  30.199  0.00  0.00    -0.301 N 
ATOM     20  C   UNL     1      -3.628  -3.416  30.582  0.00  0.00    +0.264 C 
ATOM     21  O   UNL     1      -3.760  -4.644  30.496  0.00  0.00    -0.268 OA
ATOM     22  H   UNL     1      -2.438  -1.814  30.335  0.00  0.00    +0.150 HD
BRANCH  20  23
ATOM     23  C   UNL     1      -4.755  -2.605  31.103  0.00  0.00    +0.139 C 
ATOM     24  N   UNL     1      -5.952  -3.230  31.316  0.00  0.00    -0.219 NA
ATOM     25  C   UNL     1      -6.998  -2.542  31.784  0.00  0.00    +0.200 C 
ATOM     26  N   UNL     1      -6.933  -1.226  32.064  0.00  0.00    -0.209 NA
ATOM     27  C   UNL     1      -5.791  -0.558  31.877  0.00  0.00    +0.129 C 
ATOM     28  C   UNL     1      -4.690  -1.274  31.386  0.00  0.00    +0.058 C 
BRANCH  27  29
ATOM     29  N   UNL     1      -5.690   0.833  32.162  0.00  0.00    -0.343 N 
ATOM     30  H   UNL     1      -6.471   1.323  32.506  0.00  0.00    +0.144 HD
ATOM     31  H   UNL     1      -4.839   1.305  32.015  0.00  0.00    +0.144 HD
ENDBRANCH  27  29
ENDBRANCH  20  23
ENDBRANCH  17  19
BRANCH   9  32
ATOM     32  C   UNL     1       3.013  -3.953  23.308  0.00  0.00    +0.172 C 
ATOM     33  C   UNL     1       2.944  -5.167  22.583  0.00  0.00    +0.174 C 
ATOM     34  O   UNL     1       4.229  -4.515  22.659  0.00  0.00    -0.349 OA
ENDBRANCH   9  32
BRANCH   4  35
ATOM     35  N   UNL     1       3.041  -5.377  27.899  0.00  0.00    -0.161 NA
ATOM     36  H   UNL     1       3.303  -6.105  27.234  0.00  0.00    +0.158 HD
BRANCH  35  37
ATOM     37  O   UNL     1       4.029  -4.462  27.953  0.00  0.00    -0.312 OA
ATOM     38  H   UNL     1       3.790  -3.764  28.583  0.00  0.00    +0.236 HD
ENDBRANCH  35  37
ENDBRANCH   4  35
BRANCH   4  39
ATOM     39  O   UNL     1       1.311  -5.627  26.399  0.00  0.00    -0.464 OA
BRANCH  39  40
ATOM     40  C   UNL     1       1.731  -6.969  26.317  0.00  0.00    +0.174 C 
ATOM     41  C   UNL     1       1.926  -7.538  25.142  0.00  0.00    +0.043 C 
ENDBRANCH  39  40
ENDBRANCH   4  39
TORSDOF 8
