REMARK  Name = =
REMARK  1 active torsions:
REMARK  status: ('A' for Active; 'I' for Inactive)
REMARK    1  A    between atoms: C_1  and  C_17
REMARK                            x       y       z     vdW  Elec       q    Type
REMARK                         _______ _______ _______ _____ _____    ______ ____
ROOT
ATOM      1  C   UNL     1      -3.764  -4.043  31.954  0.00  0.00    +0.033 C 
ATOM      2  C   UNL     1      -4.462  -5.371  32.161  0.00  0.00    +0.003 C 
ATOM      3  C   UNL     1      -3.533  -6.535  31.886  0.00  0.00    +0.008 C 
ATOM      4  C   UNL     1      -2.752  -6.908  33.119  0.00  0.00    +0.065 C 
ATOM      5  C   UNL     1      -1.319  -7.139  32.863  0.00  0.00    +0.151 C 
ATOM      6  O   UNL     1      -0.490  -6.664  33.593  0.00  0.00    -0.296 OA
ATOM      7  C   UNL     1      -0.912  -7.957  31.707  0.00  0.00    +0.065 C 
ATOM      8  C   UNL     1       0.586  -7.979  31.503  0.00  0.00    +0.012 C 
ATOM      9  C   UNL     1       1.130  -6.627  31.151  0.00  0.00    +0.048 C 
ATOM     10  C   UNL     1       0.961  -6.263  29.705  0.00  0.00    +0.208 C 
ATOM     11  O   UNL     1      -0.359  -6.194  29.275  0.00  0.00    -0.448 OA
ATOM     12  C   UNL     1      -1.110  -5.054  29.109  0.00  0.00    +0.317 C 
ATOM     13  O   UNL     1      -1.775  -4.778  28.075  0.00  0.00    -0.250 OA
ATOM     14  C   UNL     1      -1.149  -4.071  30.224  0.00  0.00    +0.110 C 
ATOM     15  C   UNL     1      -2.322  -3.128  30.110  0.00  0.00    +0.012 C 
ATOM     16  C   UNL     1      -3.630  -3.772  30.494  0.00  0.00    +0.004 C 
ENDROOT
BRANCH   1  17
ATOM     17  C   UNL     1      -4.619  -3.003  32.672  0.00  0.00    +0.128 C 
ATOM     18  N   UNL     1      -5.978  -3.440  32.609  0.00  0.00    -0.279 NA
ATOM     19  C   UNL     1      -6.930  -2.419  32.957  0.00  0.00    +0.098 C 
ATOM     20  C   UNL     1      -6.771  -1.297  31.995  0.00  0.00    +0.007 C 
ATOM     21  C   UNL     1      -5.529  -0.974  31.611  0.00  0.00    +0.056 C 
ATOM     22  N   UNL     1      -4.409  -1.688  32.114  0.00  0.00    -0.321 N 
ATOM     23  H   UNL     1      -6.095  -4.222  33.253  0.00  0.00    +0.125 HD
ATOM     24  H   UNL     1      -3.507  -1.294  32.083  0.00  0.00    +0.148 HD
ENDBRANCH   1  17
TORSDOF 1
