REMARK  Name = =
REMARK  0 active torsions:
REMARK  status: ('A' for Active; 'I' for Inactive)
REMARK                            x       y       z     vdW  Elec       q    Type
REMARK                         _______ _______ _______ _____ _____    ______ ____
ROOT
ATOM      1 BR   UNL     1      -4.286  -3.417  31.541  0.00  0.00    -0.021 Br
ATOM      2  C   UNL     1      -3.260  -4.994  31.277  0.00  0.00    +0.145 C 
ATOM      3  N   UNL     1      -3.048  -6.013  31.744  0.00  0.00    -0.230 NA
ATOM      4  C   UNL     1      -2.234  -6.984  31.324  0.00  0.00    +0.107 C 
ATOM      5  C   UNL     1      -1.587  -6.709  30.199  0.00  0.00    +0.058 C 
ATOM      6  S   UNL     1      -2.103  -5.125  29.736  0.00  0.00    -0.059 S 
ENDROOT
TORSDOF 0
