REMARK  Name = =
REMARK  4 active torsions:
REMARK  status: ('A' for Active; 'I' for Inactive)
REMARK    1  A    between atoms: C_1  and  O_3
REMARK    2  A    between atoms: C_1  and  C_10
REMARK    3  A    between atoms: O_3  and  C_8
REMARK    4  A    between atoms: C_10  and  N_11
REMARK                            x       y       z     vdW  Elec       q    Type
REMARK                         _______ _______ _______ _____ _____    ______ ____
ROOT
ATOM      1  C   UNL     1       1.815  -7.457  28.460  0.00  0.00    +0.343 C 
ATOM      2  O   UNL     1       2.952  -7.206  27.973  0.00  0.00    -0.248 OA
ENDROOT
BRANCH   1   3
ATOM      3  O   UNL     1       1.013  -8.329  27.785  0.00  0.00    -0.415 OA
BRANCH   3   8
ATOM      4 BR   UNL     1       2.672 -11.146  22.861  0.00  0.00    -0.021 Br
ATOM      5  C   UNL     1       2.223 -10.600  24.640  0.00  0.00    +0.148 C 
ATOM      6  N   UNL     1       2.221 -11.148  25.795  0.00  0.00    -0.227 NA
ATOM      7  C   UNL     1       1.863 -10.557  26.887  0.00  0.00    +0.144 C 
ATOM      8  C   UNL     1       1.453  -9.273  26.884  0.00  0.00    +0.199 C 
ATOM      9  S   UNL     1       1.628  -8.934  25.049  0.00  0.00    -0.023 S 
ENDBRANCH   3   8
ENDBRANCH   1   3
BRANCH   1  10
ATOM     10  C   UNL     1       1.439  -6.783  29.730  0.00  0.00    +0.209 C 
BRANCH  10  11
ATOM     11  N   UNL     1       1.269  -5.372  29.544  0.00  0.00    -0.240 N 
ATOM     12  C   UNL     1       1.974  -4.437  30.228  0.00  0.00    +0.193 C 
ATOM     13  N   UNL     1       1.527  -3.254  29.772  0.00  0.00    -0.128 NA
ATOM     14  N   UNL     1       0.607  -3.458  28.863  0.00  0.00    -0.128 NA
ATOM     15  C   UNL     1       0.414  -4.773  28.690  0.00  0.00    +0.193 C 
ENDBRANCH  10  11
ENDBRANCH   1  10
TORSDOF 4
