REMARK  Name = =
REMARK  9 active torsions:
REMARK  status: ('A' for Active; 'I' for Inactive)
REMARK    1  A    between atoms: C_1  and  N_2
REMARK    2  A    between atoms: C_1  and  C_7
REMARK    3  A    between atoms: C_1  and  O_16
REMARK    4  A    between atoms: C_7  and  O_9
REMARK    5  A    between atoms: O_9  and  C_14
REMARK    6  A    between atoms: O_16  and  C_17
REMARK    7  A    between atoms: C_17  and  C_18
REMARK    8  A    between atoms: C_18  and  N_19
REMARK    9  A    between atoms: C_23  and  O_25
REMARK                            x       y       z     vdW  Elec       q    Type
REMARK                         _______ _______ _______ _____ _____    ______ ____
ROOT
ATOM      1  C   UNL     1       2.012  -7.017  26.942  0.00  0.00    +0.301 C 
ENDROOT
BRANCH   1   2
ATOM      2  N   UNL     1       1.520  -7.431  28.250  0.00  0.00    -0.218 N 
ATOM      3  C   UNL     1       0.223  -7.370  28.629  0.00  0.00    +0.194 C 
ATOM      4  N   UNL     1       0.092  -7.824  29.896  0.00  0.00    -0.128 NA
ATOM      5  N   UNL     1       1.310  -8.169  30.311  0.00  0.00    -0.128 NA
ATOM      6  C   UNL     1       2.176  -7.929  29.308  0.00  0.00    +0.194 C 
ENDBRANCH   1   2
BRANCH   1   7
ATOM      7  C   UNL     1       3.500  -6.779  27.092  0.00  0.00    +0.370 C 
ATOM      8  O   UNL     1       3.845  -6.108  28.103  0.00  0.00    -0.245 OA
BRANCH   7   9
ATOM      9  O   UNL     1       4.401  -7.267  26.184  0.00  0.00    -0.413 OA
BRANCH   9  14
ATOM     10 BR   UNL     1      10.064  -7.613  27.686  0.00  0.00    -0.021 Br
ATOM     11  C   UNL     1       8.345  -7.049  27.016  0.00  0.00    +0.148 C 
ATOM     12  N   UNL     1       7.841  -6.191  26.494  0.00  0.00    -0.227 NA
ATOM     13  C   UNL     1       6.587  -6.041  26.127  0.00  0.00    +0.144 C 
ATOM     14  C   UNL     1       5.759  -7.054  26.408  0.00  0.00    +0.199 C 
ATOM     15  S   UNL     1       6.851  -8.232  27.219  0.00  0.00    -0.023 S 
ENDBRANCH   9  14
ENDBRANCH   7   9
ENDBRANCH   1   7
BRANCH   1  16
ATOM     16  O   UNL     1       1.739  -7.981  26.042  0.00  0.00    -0.327 OA
BRANCH  16  17
ATOM     17  C   UNL     1       2.444  -9.117  25.975  0.00  0.00    +0.162 C 
BRANCH  17  18
ATOM     18  C   UNL     1       1.769 -10.412  26.237  0.00  0.00    +0.105 C 
BRANCH  18  19
ATOM     19  N   UNL     1       2.077 -11.351  25.200  0.00  0.00    -0.269 NA
ATOM     20  C   UNL     1       2.973 -12.397  25.545  0.00  0.00    +0.072 C 
ATOM     21  C   UNL     1       3.734 -12.871  24.330  0.00  0.00    +0.020 C 
ATOM     22  C   UNL     1       4.421 -11.802  23.562  0.00  0.00    +0.032 C 
ATOM     23  C   UNL     1       3.716 -10.478  23.608  0.00  0.00    +0.126 C 
ATOM     24  C   UNL     1       2.254 -10.749  23.923  0.00  0.00    +0.102 C 
BRANCH  23  25
ATOM     25  O   UNL     1       4.211  -9.658  24.608  0.00  0.00    -0.383 OA
ATOM     26  H   UNL     1       5.146  -9.466  24.435  0.00  0.00    +0.210 HD
ENDBRANCH  23  25
ENDBRANCH  18  19
ENDBRANCH  17  18
ENDBRANCH  16  17
ENDBRANCH   1  16
TORSDOF 9
