REMARK  Name = =
REMARK  12 active torsions:
REMARK  status: ('A' for Active; 'I' for Inactive)
REMARK    1  A    between atoms: C_1  and  N_2
REMARK    2  A    between atoms: C_1  and  C_16
REMARK    3  A    between atoms: C_1  and  O_25
REMARK    4  A    between atoms: C_3  and  C_7
REMARK    5  A    between atoms: C_7  and  C_8
REMARK    6  A    between atoms: C_13  and  C_14
REMARK    7  A    between atoms: C_16  and  O_18
REMARK    8  A    between atoms: O_18  and  C_23
REMARK    9  A    between atoms: O_25  and  C_26
REMARK   10  A    between atoms: C_26  and  C_27
REMARK   11  A    between atoms: C_27  and  N_28
REMARK   12  A    between atoms: C_32  and  O_34
REMARK                            x       y       z     vdW  Elec       q    Type
REMARK                         _______ _______ _______ _____ _____    ______ ____
ROOT
ATOM      1  C   UNL     1       2.849  -9.875  26.281  0.00  0.00    +0.301 C 
ENDROOT
BRANCH   1   2
ATOM      2  N   UNL     1       1.758 -10.782  26.090  0.00  0.00    -0.224 N 
ATOM      3  C   UNL     1       1.512 -11.407  24.988  0.00  0.00    +0.143 C 
ATOM      4  N   UNL     1       0.389 -12.187  25.265  0.00  0.00    -0.135 NA
ATOM      5  N   UNL     1       0.085 -11.964  26.431  0.00  0.00    -0.129 NA
ATOM      6  C   UNL     1       0.753 -11.123  27.202  0.00  0.00    +0.194 C 
BRANCH   3   7
ATOM      7  C   UNL     1       2.040 -11.502  23.589  0.00  0.00    +0.113 C 
BRANCH   7   8
ATOM      8  C   UNL     1       1.319 -10.398  22.832  0.00  0.00    +0.117 A 
ATOM      9  N   UNL     1       1.473  -9.083  22.832  0.00  0.00    -0.081 NA
ATOM     10  O   UNL     1       0.560  -8.499  22.094  0.00  0.00    -0.357 OA
ATOM     11  C   UNL     1      -0.259  -9.460  21.556  0.00  0.00    +0.164 A 
ATOM     12  C   UNL     1      -1.377  -9.077  20.685  0.00  0.00    +0.076 C 
ATOM     13  C   UNL     1       0.210 -10.654  22.012  0.00  0.00    +0.118 A 
BRANCH  13  14
ATOM     14  C   UNL     1      -0.247 -11.900  21.639  0.00  0.00    +0.105 C 
ATOM     15  N   UNL     1      -0.680 -13.025  21.293  0.00  0.00    -0.191 NA
ENDBRANCH  13  14
ENDBRANCH   7   8
ENDBRANCH   3   7
ENDBRANCH   1   2
BRANCH   1  16
ATOM     16  C   UNL     1       2.456  -8.496  26.679  0.00  0.00    +0.370 C 
ATOM     17  O   UNL     1       1.843  -7.760  25.852  0.00  0.00    -0.245 OA
BRANCH  16  18
ATOM     18  O   UNL     1       2.703  -7.920  27.922  0.00  0.00    -0.413 OA
BRANCH  18  23
ATOM     19 BR   UNL     1      -0.421  -3.300  29.796  0.00  0.00    -0.021 Br
ATOM     20  C   UNL     1       0.987  -4.399  29.146  0.00  0.00    +0.148 C 
ATOM     21  N   UNL     1       1.922  -4.665  28.819  0.00  0.00    -0.227 NA
ATOM     22  C   UNL     1       2.838  -5.414  28.397  0.00  0.00    +0.144 C 
ATOM     23  C   UNL     1       2.206  -6.692  28.318  0.00  0.00    +0.199 C 
ATOM     24  S   UNL     1       0.497  -6.368  28.884  0.00  0.00    -0.023 S 
ENDBRANCH  18  23
ENDBRANCH  16  18
ENDBRANCH   1  16
BRANCH   1  25
ATOM     25  O   UNL     1       3.822 -10.387  27.057  0.00  0.00    -0.327 OA
BRANCH  25  26
ATOM     26  C   UNL     1       4.642 -11.352  26.594  0.00  0.00    +0.162 C 
BRANCH  26  27
ATOM     27  C   UNL     1       5.268 -11.017  25.281  0.00  0.00    +0.105 C 
BRANCH  27  28
ATOM     28  N   UNL     1       5.473 -12.131  24.449  0.00  0.00    -0.269 NA
ATOM     29  C   UNL     1       6.171 -11.957  23.203  0.00  0.00    +0.072 C 
ATOM     30  C   UNL     1       6.104 -13.251  22.359  0.00  0.00    +0.020 C 
ATOM     31  C   UNL     1       4.908 -14.056  22.906  0.00  0.00    +0.032 C 
ATOM     32  C   UNL     1       5.511 -14.610  24.229  0.00  0.00    +0.126 C 
ATOM     33  C   UNL     1       5.723 -13.409  25.068  0.00  0.00    +0.102 C 
BRANCH  32  34
ATOM     34  O   UNL     1       4.674 -15.523  24.855  0.00  0.00    -0.383 OA
ATOM     35  H   UNL     1       4.554 -16.297  24.283  0.00  0.00    +0.210 HD
ENDBRANCH  32  34
ENDBRANCH  27  28
ENDBRANCH  26  27
ENDBRANCH  25  26
ENDBRANCH   1  25
TORSDOF 12
