MODEL 1
REMARK VINA RESULT:   -10.550      0.000      0.000
REMARK INTER + INTRA:         -15.639
REMARK INTER:                 -14.251
REMARK INTRA:                  -1.388
REMARK UNBOUND:                -1.388
REMARK  Name = =
REMARK  7 active torsions:
REMARK  status: ('A' for Active; 'I' for Inactive)
REMARK    1  A    between atoms: C_1  and  N_28
REMARK    2  A    between atoms: C_5  and  C_11
REMARK    3  A    between atoms: C_8  and  C_39
REMARK    4  A    between atoms: N_28  and  S_34
REMARK    5  A    between atoms: S_34  and  O_37
REMARK    6  A    between atoms: O_37  and  N_38
REMARK    7  A    between atoms: C_39  and  O_41
REMARK                            x       y       z     vdW  Elec       q    Type
REMARK                         _______ _______ _______ _____ _____    ______ ____
ROOT
ATOM      1  C   UNL     1      -8.886  -1.070  30.886  0.00  0.00    +0.160 C 
ATOM      2  C   UNL     1      -9.821  -1.716  31.661  0.00  0.00    +0.053 C 
ATOM      3  C   UNL     1      -9.496  -2.633  32.642  0.00  0.00    +0.007 C 
ATOM      4  C   UNL     1      -8.143  -2.897  32.839  0.00  0.00    +0.015 C 
ATOM      5  C   UNL     1      -7.219  -2.251  32.067  0.00  0.00    +0.060 C 
ATOM      6  N   UNL     1      -7.580  -1.376  31.131  0.00  0.00    -0.233 NA
ATOM      7  C   UNL     1     -10.459  -3.263  33.395  0.00  0.00    +0.017 C 
ATOM      8  C   UNL     1     -11.788  -2.988  33.176  0.00  0.00    +0.086 C 
ATOM      9  N   UNL     1     -12.086  -2.092  32.211  0.00  0.00    -0.246 NA
ATOM     10  C   UNL     1     -11.159  -1.464  31.465  0.00  0.00    +0.101 C 
ENDROOT
BRANCH   5  11
ATOM     11  C   UNL     1      -5.777  -2.534  32.274  0.00  0.00    +0.040 C 
ATOM     12  C   UNL     1      -5.577  -3.673  33.254  0.00  0.00    +0.006 C 
ATOM     13  C   UNL     1      -4.106  -3.827  33.527  0.00  0.00    +0.000 C 
ATOM     14  C   UNL     1      -3.789  -5.334  33.638  0.00  0.00    +0.000 C 
ATOM     15  C   UNL     1      -3.286  -5.859  32.329  0.00  0.00    +0.005 C 
ATOM     16  C   UNL     1      -1.932  -6.377  32.277  0.00  0.00    +0.057 C 
ATOM     17  C   UNL     1      -1.701  -7.725  31.740  0.00  0.00    +0.120 C 
ATOM     18  O   UNL     1      -1.463  -8.274  32.972  0.00  0.00    -0.356 OA
ATOM     19  C   UNL     1      -1.278  -6.973  33.471  0.00  0.00    +0.142 C 
ATOM     20  C   UNL     1      -2.759  -8.336  30.902  0.00  0.00    +0.030 C 
ATOM     21  C   UNL     1      -4.170  -7.961  31.290  0.00  0.00    +0.002 C 
ATOM     22  C   UNL     1      -4.303  -6.467  31.440  0.00  0.00    +0.000 C 
ATOM     23  C   UNL     1      -4.561  -5.768  30.148  0.00  0.00    +0.000 C 
ATOM     24  C   UNL     1      -3.787  -4.471  29.981  0.00  0.00    +0.000 C 
ATOM     25  C   UNL     1      -3.976  -3.605  31.142  0.00  0.00    +0.000 C 
ATOM     26  C   UNL     1      -5.131  -2.964  31.005  0.00  0.00    +0.006 C 
ATOM     27  C   UNL     1      -3.234  -3.271  32.408  0.00  0.00    +0.000 C 
ENDBRANCH   5  11
BRANCH   1  28
ATOM     28  N   UNL     1      -9.199  -0.109  29.885  0.00  0.00    -0.103 N 
ATOM     29  C   UNL     1      -9.878  -0.436  28.687  0.00  0.00    +0.308 C 
ATOM     30  N   UNL     1     -11.118  -0.201  28.460  0.00  0.00    -0.219 NA
ATOM     31  C   UNL     1     -11.484  -0.666  27.133  0.00  0.00    +0.177 C 
ATOM     32  C   UNL     1     -10.142  -0.937  26.473  0.00  0.00    +0.235 C 
ATOM     33  O   UNL     1      -9.284  -1.056  27.601  0.00  0.00    -0.446 OA
BRANCH  28  34
ATOM     34  S   UNL     1      -8.693   1.534  30.210  0.00  0.00    +0.089 S 
ATOM     35  O   UNL     1      -9.721   2.463  29.639  0.00  0.00    -0.050 OA
ATOM     36  O   UNL     1      -8.574   1.730  31.710  0.00  0.00    -0.050 OA
BRANCH  34  37
ATOM     37  O   UNL     1      -7.207   1.743  29.465  0.00  0.00    -0.151 OA
BRANCH  37  38
ATOM     38  N   UNL     1      -6.226   1.498  30.376  0.00  0.00    -0.188 NA
ATOM     39  H   UNL     1      -5.953   2.372  30.824  0.00  0.00    +0.152 HD
ATOM     40  H   UNL     1      -5.419   1.090  29.905  0.00  0.00    +0.152 HD
ENDBRANCH  37  38
ENDBRANCH  34  37
ENDBRANCH  28  34
ENDBRANCH   1  28
BRANCH   8  41
ATOM     41  C   UNL     1     -12.873  -3.651  33.974  0.00  0.00    +0.150 C 
ATOM     42  C   UNL     1     -13.005  -5.095  33.590  0.00  0.00    +0.038 C 
BRANCH  41  43
ATOM     43  O   UNL     1     -14.105  -3.032  33.777  0.00  0.00    -0.378 OA
ATOM     44  H   UNL     1     -14.817  -3.677  33.913  0.00  0.00    +0.211 HD
ENDBRANCH  41  43
ENDBRANCH   8  41
TORSDOF 7
ENDMDL
