MODEL 1
REMARK VINA RESULT:    -9.005      0.000      0.000
REMARK INTER + INTRA:         -11.044
REMARK INTER:                 -13.216
REMARK INTRA:                   2.172
REMARK UNBOUND:                 2.172
REMARK  Name = =
REMARK  10 active torsions:
REMARK  status: ('A' for Active; 'I' for Inactive)
REMARK    1  A    between atoms: C_1  and  C_24
REMARK    2  A    between atoms: C_6  and  C_8
REMARK    3  A    between atoms: C_6  and  S_35
REMARK    4  A    between atoms: C_7  and  N_39
REMARK    5  A    between atoms: N_22  and  N_30
REMARK    6  A    between atoms: C_24  and  C_27
REMARK    7  A    between atoms: N_30  and  O_33
REMARK    8  A    between atoms: C_31  and  O_34
REMARK    9  A    between atoms: S_35  and  O_38
REMARK   10  A    between atoms: N_39  and  N_40
REMARK                            x       y       z     vdW  Elec       q    Type
REMARK                         _______ _______ _______ _____ _____    ______ ____
ROOT
ATOM      1  C   UNL     1       3.178  -4.167  27.172  0.00  0.00    +0.153 C 
ATOM      2  O   UNL     1       4.033  -4.115  28.224  0.00  0.00    -0.345 OA
ATOM      3  C   UNL     1       3.845  -5.170  29.099  0.00  0.00    +0.208 C 
ATOM      4  C   UNL     1       2.438  -4.960  29.492  0.00  0.00    +0.206 C 
ATOM      5  O   UNL     1       2.170  -4.427  30.510  0.00  0.00    -0.291 OA
ATOM      6  C   UNL     1       1.406  -5.438  28.550  0.00  0.00    +0.202 C 
ATOM      7  C   UNL     1       1.741  -4.505  27.362  0.00  0.00    +0.128 C 
ENDROOT
BRANCH   6   8
ATOM      8  C   UNL     1       0.036  -5.177  29.063  0.00  0.00    +0.006 C 
ATOM      9  C   UNL     1      -0.559  -5.901  30.092  0.00  0.00    -0.002 C 
ATOM     10  C   UNL     1      -1.902  -5.698  30.453  0.00  0.00    -0.000 C 
ATOM     11  C   UNL     1      -2.498  -6.402  31.491  0.00  0.00    -0.000 C 
ATOM     12  C   UNL     1      -1.701  -7.317  32.158  0.00  0.00    -0.000 C 
ATOM     13  C   UNL     1      -2.290  -8.026  33.199  0.00  0.00    -0.000 C 
ATOM     14  C   UNL     1      -3.583  -7.857  33.573  0.00  0.00    +0.000 C 
ATOM     15  C   UNL     1      -4.360  -6.948  32.908  0.00  0.00    -0.000 C 
ATOM     16  C   UNL     1      -3.814  -6.219  31.864  0.00  0.00    -0.000 C 
ATOM     17  C   UNL     1      -0.388  -7.531  31.824  0.00  0.00    -0.000 C 
ATOM     18  C   UNL     1       0.192  -6.819  30.786  0.00  0.00    -0.000 C 
ATOM     19  C   UNL     1      -2.668  -4.763  29.794  0.00  0.00    -0.000 C 
ATOM     20  C   UNL     1      -2.092  -4.022  28.763  0.00  0.00    -0.000 C 
ATOM     21  C   UNL     1      -0.758  -4.251  28.426  0.00  0.00    -0.002 C 
ENDBRANCH   6   8
BRANCH   1  24
ATOM     22  N   UNL     1       1.773  -1.587  25.255  0.00  0.00    -0.157 NA
ATOM     23  C   UNL     1       2.800  -2.606  25.234  0.00  0.00    +0.119 C 
ATOM     24  C   UNL     1       3.233  -2.697  26.663  0.00  0.00    +0.122 C 
ATOM     25  N   UNL     1       2.148  -2.024  27.396  0.00  0.00    -0.194 NA
ATOM     26  C   UNL     1       1.373  -1.429  26.589  0.00  0.00    +0.184 C 
BRANCH  24  27
ATOM     27  C   UNL     1       4.485  -2.018  26.955  0.00  0.00    -0.001 C 
ATOM     28  C   UNL     1       5.595  -2.252  26.274  0.00  0.00    +0.032 C 
ATOM     29  I   UNL     1       5.660  -3.648  24.682  0.00  0.00    -0.042 I 
ENDBRANCH  24  27
BRANCH  22  30
ATOM     30  N   UNL     1       1.246  -0.871  24.166  0.00  0.00    -0.070 N 
ATOM     31  C   UNL     1       1.984   0.152  23.532  0.00  0.00    +0.439 C 
ATOM     32  O   UNL     1       1.483   0.767  22.564  0.00  0.00    -0.223 OA
BRANCH  30  33
ATOM     33  O   UNL     1      -0.008  -1.166  23.698  0.00  0.00    -0.275 OA
ATOM     34  H   UNL     1      -0.449  -1.772  24.313  0.00  0.00    +0.243 HD
ENDBRANCH  30  33
BRANCH  31  35
ATOM     35  O   UNL     1       3.239   0.487  23.954  0.00  0.00    -0.464 OA
ATOM     36  H   UNL     1       3.446   0.473  24.868  0.00  0.00    +0.297 HD
ENDBRANCH  31  35
ENDBRANCH  22  30
ENDBRANCH   1  24
BRANCH   6  37
ATOM     37  S   UNL     1       1.488  -7.058  27.966  0.00  0.00    -0.002 S 
ATOM     38  O   UNL     1       2.717  -7.377  27.151  0.00  0.00    -0.071 OA
ATOM     39  O   UNL     1       1.299  -8.218  28.874  0.00  0.00    -0.071 OA
BRANCH  37  40
ATOM     40  O   UNL     1       0.092  -7.314  26.966  0.00  0.00    -0.271 OA
ATOM     41  H   UNL     1       0.373  -7.633  26.094  0.00  0.00    +0.243 HD
ENDBRANCH  37  40
ENDBRANCH   6  37
BRANCH   7  42
ATOM     42  N   UNL     1       1.187  -4.883  26.128  0.00  0.00    -0.245 NA
ATOM     43  H   UNL     1       0.854  -4.025  25.689  0.00  0.00    +0.141 HD
BRANCH  42  44
ATOM     44  N   UNL     1       1.912  -5.531  25.193  0.00  0.00    -0.270 NA
ATOM     45  H   UNL     1       2.765  -5.006  24.999  0.00  0.00    +0.137 HD
ATOM     46  H   UNL     1       1.364  -5.618  24.337  0.00  0.00    +0.137 HD
ENDBRANCH  42  44
ENDBRANCH   7  42
TORSDOF 10
ENDMDL
