MODEL 1
REMARK VINA RESULT:   -11.639      0.000      0.000
REMARK INTER + INTRA:         -15.000
REMARK INTER:                 -13.680
REMARK INTRA:                  -1.320
REMARK UNBOUND:                -1.320
REMARK  Name = =
REMARK  3 active torsions:
REMARK  status: ('A' for Active; 'I' for Inactive)
REMARK    1  A    between atoms: C_1  and  C_24
REMARK    2  A    between atoms: C_10  and  N_11
REMARK    3  A    between atoms: C_32  and  N_34
REMARK                            x       y       z     vdW  Elec       q    Type
REMARK                         _______ _______ _______ _____ _____    ______ ____
ROOT
ATOM      1  C   UNL     1      -3.430  -4.245  31.426  0.00  0.00    +0.018 C 
ATOM      2  C   UNL     1      -2.483  -5.226  31.176  0.00  0.00    +0.003 C 
ATOM      3  C   UNL     1      -2.469  -6.455  31.802  0.00  0.00    +0.016 C 
ATOM      4  C   UNL     1      -3.448  -6.747  32.736  0.00  0.00    +0.001 C 
ATOM      5  C   UNL     1      -4.398  -5.771  32.991  0.00  0.00    +0.000 C 
ATOM      6  C   UNL     1      -4.401  -4.540  32.357  0.00  0.00    +0.001 C 
ATOM      7  C   UNL     1      -3.482  -7.972  33.397  0.00  0.00    +0.000 C 
ATOM      8  C   UNL     1      -2.514  -8.909  33.108  0.00  0.00    +0.001 C 
ATOM      9  C   UNL     1      -1.522  -8.662  32.186  0.00  0.00    +0.018 C 
ATOM     10  C   UNL     1      -1.527  -7.433  31.553  0.00  0.00    +0.064 C 
ENDROOT
BRANCH  10  11
ATOM     11  N   UNL     1      -0.519  -7.125  30.587  0.00  0.00    -0.305 N 
ATOM     12  C   UNL     1       0.570  -6.375  30.854  0.00  0.00    +0.083 A 
ATOM     13  C   UNL     1       1.004  -5.737  32.028  0.00  0.00    +0.116 C 
ATOM     14  N   UNL     1       2.158  -5.061  31.940  0.00  0.00    -0.241 NA
ATOM     15  C   UNL     1       2.895  -4.967  30.819  0.00  0.00    +0.099 C 
ATOM     16  C   UNL     1       2.464  -5.594  29.678  0.00  0.00    +0.022 C 
ATOM     17  C   UNL     1       1.279  -6.318  29.674  0.00  0.00    +0.021 A 
ATOM     18  C   UNL     1       0.605  -7.036  28.703  0.00  0.00    +0.018 A 
ATOM     19  C   UNL     1      -0.528  -7.535  29.309  0.00  0.00    +0.064 A 
ATOM     20  C   UNL     1      -1.396  -8.310  28.539  0.00  0.00    +0.018 C 
ATOM     21  C   UNL     1      -1.130  -8.570  27.212  0.00  0.00    +0.001 C 
ATOM     22  C   UNL     1       0.017  -8.066  26.593  0.00  0.00    +0.000 C 
ATOM     23  C   UNL     1       0.878  -7.292  27.378  0.00  0.00    +0.001 C 
ENDBRANCH  10  11
BRANCH   1  24
ATOM     24  C   UNL     1      -3.368  -2.945  30.767  0.00  0.00    +0.086 C 
ATOM     25  N   UNL     1      -4.303  -1.987  31.058  0.00  0.00    -0.224 NA
ATOM     26  C   UNL     1      -4.316  -0.778  30.510  0.00  0.00    +0.199 C 
ATOM     27  N   UNL     1      -3.365  -0.456  29.619  0.00  0.00    -0.224 NA
ATOM     28  C   UNL     1      -2.414  -1.341  29.284  0.00  0.00    +0.089 C 
ATOM     29  C   UNL     1      -2.406  -2.610  29.864  0.00  0.00    +0.055 C 
ATOM     30  C   UNL     1      -1.419  -3.494  29.524  0.00  0.00    +0.103 C 
ATOM     31  N   UNL     1      -0.481  -3.105  28.630  0.00  0.00    -0.228 NA
ATOM     32  C   UNL     1      -0.461  -1.897  28.055  0.00  0.00    +0.145 C 
ATOM     33  C   UNL     1      -1.436  -0.997  28.381  0.00  0.00    +0.054 C 
BRANCH  32  34
ATOM     34  N   UNL     1       0.586  -1.605  27.122  0.00  0.00    -0.192 N 
ATOM     35  C   UNL     1       1.873  -1.257  27.574  0.00  0.00    +0.236 C 
ATOM     36  O   UNL     1       2.043  -0.834  28.736  0.00  0.00    -0.274 OA
ATOM     37  C   UNL     1       3.028  -1.394  26.667  0.00  0.00    +0.087 C 
ATOM     38  C   UNL     1       2.649  -0.976  25.264  0.00  0.00    +0.019 C 
ATOM     39  C   UNL     1       1.419  -1.687  24.771  0.00  0.00    +0.087 C 
ATOM     40  C   UNL     1       0.309  -1.674  25.736  0.00  0.00    +0.236 C 
ATOM     41  O   UNL     1      -0.864  -1.721  25.338  0.00  0.00    -0.274 OA
ENDBRANCH  32  34
ENDBRANCH   1  24
TORSDOF 3
ENDMDL
