REMARK  Name = =
REMARK  3 active torsions:
REMARK  status: ('A' for Active; 'I' for Inactive)
REMARK    1  A    between atoms: C_1  and  C_24
REMARK    2  A    between atoms: C_10  and  N_11
REMARK    3  A    between atoms: C_32  and  N_34
REMARK                            x       y       z     vdW  Elec       q    Type
REMARK                         _______ _______ _______ _____ _____    ______ ____
ROOT
ATOM      1  C   UNL     1     -11.977  -1.371  29.335  0.00  0.00    +0.018 C 
ATOM      2  C   UNL     1     -10.950  -1.298  30.262  0.00  0.00    +0.003 C 
ATOM      3  C   UNL     1     -11.098  -1.611  31.597  0.00  0.00    +0.016 C 
ATOM      4  C   UNL     1     -12.336  -2.025  32.059  0.00  0.00    +0.001 C 
ATOM      5  C   UNL     1     -13.368  -2.101  31.138  0.00  0.00    +0.000 C 
ATOM      6  C   UNL     1     -13.207  -1.783  29.799  0.00  0.00    +0.001 C 
ATOM      7  C   UNL     1     -12.542  -2.354  33.396  0.00  0.00    +0.000 C 
ATOM      8  C   UNL     1     -11.483  -2.262  34.273  0.00  0.00    +0.001 C 
ATOM      9  C   UNL     1     -10.234  -1.855  33.858  0.00  0.00    +0.018 C 
ATOM     10  C   UNL     1     -10.075  -1.539  32.522  0.00  0.00    +0.064 C 
ENDROOT
BRANCH  10  11
ATOM     11  N   UNL     1      -8.800  -1.111  32.038  0.00  0.00    -0.305 N 
ATOM     12  C   UNL     1      -8.594   0.063  31.405  0.00  0.00    +0.083 A 
ATOM     13  C   UNL     1      -9.467   1.109  31.065  0.00  0.00    +0.116 C 
ATOM     14  N   UNL     1      -8.917   2.152  30.426  0.00  0.00    -0.241 NA
ATOM     15  C   UNL     1      -7.614   2.240  30.107  0.00  0.00    +0.099 C 
ATOM     16  C   UNL     1      -6.769   1.214  30.444  0.00  0.00    +0.022 C 
ATOM     17  C   UNL     1      -7.249   0.092  31.107  0.00  0.00    +0.021 A 
ATOM     18  C   UNL     1      -6.656  -1.070  31.564  0.00  0.00    +0.018 A 
ATOM     19  C   UNL     1      -7.660  -1.812  32.148  0.00  0.00    +0.064 A 
ATOM     20  C   UNL     1      -7.326  -3.050  32.699  0.00  0.00    +0.018 C 
ATOM     21  C   UNL     1      -6.030  -3.518  32.661  0.00  0.00    +0.001 C 
ATOM     22  C   UNL     1      -5.009  -2.770  32.070  0.00  0.00    +0.000 C 
ATOM     23  C   UNL     1      -5.359  -1.531  31.523  0.00  0.00    +0.001 C 
ENDBRANCH  10  11
BRANCH   1  24
ATOM     24  C   UNL     1     -11.773  -0.983  27.944  0.00  0.00    +0.086 C 
ATOM     25  N   UNL     1     -11.717   0.344  27.606  0.00  0.00    -0.224 NA
ATOM     26  C   UNL     1     -11.528   0.783  26.368  0.00  0.00    +0.199 C 
ATOM     27  N   UNL     1     -11.380  -0.109  25.376  0.00  0.00    -0.224 NA
ATOM     28  C   UNL     1     -11.422  -1.426  25.628  0.00  0.00    +0.089 C 
ATOM     29  C   UNL     1     -11.620  -1.881  26.932  0.00  0.00    +0.055 C 
ATOM     30  C   UNL     1     -11.643  -3.227  27.175  0.00  0.00    +0.103 C 
ATOM     31  N   UNL     1     -11.474  -4.075  26.134  0.00  0.00    -0.228 NA
ATOM     32  C   UNL     1     -11.284  -3.672  24.873  0.00  0.00    +0.145 C 
ATOM     33  C   UNL     1     -11.255  -2.332  24.607  0.00  0.00    +0.054 C 
BRANCH  32  34
ATOM     34  N   UNL     1     -11.118  -4.669  23.858  0.00  0.00    -0.192 N 
ATOM     35  C   UNL     1     -12.230  -5.166  23.151  0.00  0.00    +0.236 C 
ATOM     36  O   UNL     1     -13.381  -5.050  23.620  0.00  0.00    -0.274 OA
ATOM     37  C   UNL     1     -12.032  -5.828  21.848  0.00  0.00    +0.087 C 
ATOM     38  C   UNL     1     -10.788  -6.688  21.877  0.00  0.00    +0.019 C 
ATOM     39  C   UNL     1      -9.580  -5.924  22.346  0.00  0.00    +0.087 C 
ATOM     40  C   UNL     1      -9.817  -5.148  23.572  0.00  0.00    +0.236 C 
ATOM     41  O   UNL     1      -8.884  -4.914  24.353  0.00  0.00    -0.274 OA
ENDBRANCH  32  34
ENDBRANCH   1  24
TORSDOF 3
