MODEL 1
REMARK VINA RESULT:   -10.246      0.000      0.000
REMARK INTER + INTRA:         -13.087
REMARK INTER:                 -12.043
REMARK INTRA:                  -1.044
REMARK UNBOUND:                -1.044
REMARK  Name = =
REMARK  3 active torsions:
REMARK  status: ('A' for Active; 'I' for Inactive)
REMARK    1  A    between atoms: C_11  and  N_14
REMARK    2  A    between atoms: N_13  and  N_33
REMARK    3  A    between atoms: N_33  and  C_34
REMARK                            x       y       z     vdW  Elec       q    Type
REMARK                         _______ _______ _______ _____ _____    ______ ____
ROOT
ATOM      1  C   UNL     1      -0.408  -6.666  31.026  0.00  0.00    +0.211 C 
ATOM      2  N   UNL     1       0.810  -6.609  31.752  0.00  0.00    -0.277 N 
ATOM      3  C   UNL     1       1.032  -7.430  32.931  0.00  0.00    +0.111 C 
ATOM      4  C   UNL     1       1.552  -6.555  34.065  0.00  0.00    +0.090 C 
ATOM      5  N   UNL     1       2.632  -5.723  33.623  0.00  0.00    -0.295 NA
ATOM      6  C   UNL     1       2.298  -4.858  32.533  0.00  0.00    +0.090 C 
ATOM      7  C   UNL     1       1.881  -5.717  31.332  0.00  0.00    +0.111 C 
ATOM      8  N   UNL     1      -0.319  -6.960  29.624  0.00  0.00    -0.235 N 
ATOM      9  C   UNL     1      -0.791  -6.192  28.520  0.00  0.00    +0.073 C 
ATOM     10  C   UNL     1      -0.267  -6.859  27.319  0.00  0.00    +0.032 C 
ATOM     11  C   UNL     1       0.363  -7.982  27.640  0.00  0.00    +0.065 C 
ATOM     12  C   UNL     1       0.304  -8.150  29.125  0.00  0.00    +0.087 C 
ATOM     13  N   UNL     1      -1.543  -6.474  31.557  0.00  0.00    -0.154 NA
ATOM     14  H   UNL     1       3.400  -6.325  33.330  0.00  0.00    +0.123 HD
ENDROOT
BRANCH  11  15
ATOM     15  N   UNL     1       1.000  -8.901  26.780  0.00  0.00    -0.308 N 
ATOM     16  C   UNL     1       0.186  -9.931  26.142  0.00  0.00    +0.078 C 
ATOM     17  C   UNL     1       0.627 -10.105  24.734  0.00  0.00    +0.027 C 
ATOM     18  C   UNL     1       2.072 -10.239  24.600  0.00  0.00    +0.068 C 
ATOM     19  C   UNL     1       2.652 -10.548  23.235  0.00  0.00    +0.226 C 
ATOM     20  O   UNL     1       3.820 -11.335  23.619  0.00  0.00    -0.472 OA
ATOM     21  C   UNL     1       3.436 -12.125  24.726  0.00  0.00    +0.135 C 
ATOM     22  C   UNL     1       2.375 -11.517  25.326  0.00  0.00    +0.011 C 
ATOM     23  C   UNL     1       1.671 -11.925  26.420  0.00  0.00    -0.021 C 
ATOM     24  C   UNL     1       2.093 -13.097  26.987  0.00  0.00    -0.004 C 
ATOM     25  C   UNL     1       3.183 -13.804  26.449  0.00  0.00    +0.003 C 
ATOM     26  C   UNL     1       3.836 -13.302  25.321  0.00  0.00    +0.037 C 
ATOM     27  C   UNL     1       0.502 -11.197  26.923  0.00  0.00    +0.046 C 
ATOM     28  C   UNL     1       1.701 -11.364  22.435  0.00  0.00    +0.191 C 
ATOM     29  O   UNL     1       2.021 -11.704  21.317  0.00  0.00    -0.292 OA
ATOM     30  C   UNL     1       0.391 -11.759  22.975  0.00  0.00    +0.068 C 
ATOM     31  C   UNL     1      -0.273 -10.629  23.735  0.00  0.00    +0.010 C 
ATOM     32  C   UNL     1       2.815  -9.069  25.144  0.00  0.00    +0.030 C 
ATOM     33  C   UNL     1       2.417  -8.802  26.559  0.00  0.00    +0.091 C 
ENDBRANCH  11  15
BRANCH  13  34
ATOM     34  N   UNL     1      -2.707  -6.540  30.808  0.00  0.00    -0.252 N 
ATOM     35  H   UNL     1      -2.788  -7.194  30.076  0.00  0.00    +0.169 HD
BRANCH  34  36
ATOM     36  C   UNL     1      -3.795  -5.648  31.108  0.00  0.00    +0.110 C 
ATOM     37  C   UNL     1      -3.441  -4.290  30.533  0.00  0.00    +0.034 C 
ATOM     38  C   UNL     1      -4.598  -3.324  30.684  0.00  0.00    +0.071 C 
ATOM     39  C   UNL     1      -5.200  -3.502  32.036  0.00  0.00    +0.173 C 
ATOM     40  O   UNL     1      -6.174  -2.767  32.347  0.00  0.00    -0.291 OA
ATOM     41  C   UNL     1      -4.727  -4.469  33.001  0.00  0.00    +0.035 C 
ATOM     42  C   UNL     1      -4.037  -5.527  32.571  0.00  0.00    -0.003 C 
ENDBRANCH  34  36
ENDBRANCH  13  34
TORSDOF 3
ENDMDL
