MODEL 1
REMARK VINA RESULT:    -7.053      0.000      0.000
REMARK INTER + INTRA:         -13.012
REMARK INTER:                 -11.589
REMARK INTRA:                  -1.423
REMARK UNBOUND:                -1.423
REMARK  Name = =
REMARK  13 active torsions:
REMARK  status: ('A' for Active; 'I' for Inactive)
REMARK    1  A    between atoms: C_2  and  O_34
REMARK    2  A    between atoms: N_6  and  C_18
REMARK    3  A    between atoms: C_16  and  C_26
REMARK    4  A    between atoms: C_17  and  C_31
REMARK    5  A    between atoms: C_18  and  S_19
REMARK    6  A    between atoms: C_18  and  N_20
REMARK    7  A    between atoms: S_19  and  C_21
REMARK    8  A    between atoms: C_21  and  C_23
REMARK    9  A    between atoms: C_23  and  O_25
REMARK   10  A    between atoms: C_27  and  C_28
REMARK   11  A    between atoms: C_28  and  O_30
REMARK   12  A    between atoms: C_31  and  O_33
REMARK   13  A    between atoms: O_34  and  S_35
REMARK                            x       y       z     vdW  Elec       q    Type
REMARK                         _______ _______ _______ _____ _____    ______ ____
ROOT
ATOM      1  N   UNL     1       0.400  -6.224  28.900  0.00  0.00    -0.264 N 
ATOM      2  C   UNL     1       0.726  -4.945  28.276  0.00  0.00    +0.227 C 
ATOM      3  C   UNL     1       0.316  -3.754  29.112  0.00  0.00    +0.131 C 
ATOM      4  C   UNL     1       1.328  -3.660  30.229  0.00  0.00    +0.120 C 
ATOM      5  N   UNL     1       1.781  -4.741  30.825  0.00  0.00    -0.143 NA
ATOM      6  N   UNL     1       1.099  -5.952  31.127  0.00  0.00    -0.168 NA
ATOM      7  C   UNL     1      -0.070  -6.342  30.262  0.00  0.00    +0.130 C 
ATOM      8  C   UNL     1      -0.693  -7.548  30.681  0.00  0.00    +0.036 C 
ATOM      9  C   UNL     1      -1.997  -7.359  30.973  0.00  0.00    +0.004 C 
ATOM     10  C   UNL     1      -2.359  -5.946  30.748  0.00  0.00    +0.010 C 
ATOM     11  C   UNL     1      -1.060  -5.237  30.663  0.00  0.00    +0.090 C 
ATOM     12  C   UNL     1      -0.980  -4.070  29.789  0.00  0.00    +0.159 C 
ATOM     13  O   UNL     1      -1.918  -3.355  29.594  0.00  0.00    -0.296 OA
ATOM     14  S   UNL     1       2.581  -4.971  28.401  0.00  0.00    -0.089 S 
ATOM     15  C   UNL     1       3.076  -6.641  28.065  0.00  0.00    +0.089 C 
ATOM     16  C   UNL     1       1.979  -7.591  27.763  0.00  0.00    +0.009 C 
ATOM     17  C   UNL     1       0.702  -7.428  28.144  0.00  0.00    +0.124 C 
ENDROOT
BRANCH  16  18
ATOM     18  C   UNL     1       2.377  -8.718  26.948  0.00  0.00    +0.005 C 
ATOM     19  C   UNL     1       3.188  -9.701  27.373  0.00  0.00    +0.081 C 
BRANCH  19  20
ATOM     20  C   UNL     1       3.504 -10.774  26.442  0.00  0.00    +0.338 C 
ATOM     21  O   UNL     1       4.251 -10.631  25.440  0.00  0.00    -0.245 OA
BRANCH  20  22
ATOM     22  O   UNL     1       2.957 -12.024  26.662  0.00  0.00    -0.477 OA
ATOM     23  H   UNL     1       2.037 -12.112  26.816  0.00  0.00    +0.295 HD
ENDBRANCH  20  22
ENDBRANCH  19  20
ENDBRANCH  16  18
BRANCH  17  24
ATOM     24  C   UNL     1      -0.318  -8.391  27.922  0.00  0.00    +0.351 C 
ATOM     25  O   UNL     1      -0.253  -9.570  28.346  0.00  0.00    -0.244 OA
BRANCH  24  26
ATOM     26  O   UNL     1      -1.475  -8.132  27.216  0.00  0.00    -0.476 OA
ATOM     27  H   UNL     1      -1.628  -7.277  26.866  0.00  0.00    +0.295 HD
ENDBRANCH  24  26
ENDBRANCH  17  24
BRANCH   6  28
ATOM     28  C   UNL     1       1.517  -6.712  32.197  0.00  0.00    +0.173 C 
BRANCH  28  29
ATOM     29  N   UNL     1       2.424  -7.781  32.084  0.00  0.00    -0.300 NA
ATOM     30  H   UNL     1       1.911  -8.645  31.908  0.00  0.00    +0.121 HD
ATOM     31  H   UNL     1       2.953  -7.871  32.951  0.00  0.00    +0.121 HD
ENDBRANCH  28  29
BRANCH  28  32
ATOM     32  S   UNL     1       0.968  -6.410  33.735  0.00  0.00    -0.107 S 
ATOM     33  H   UNL     1       0.777  -7.619  34.328  0.00  0.00    +0.103 HD
BRANCH  32  34
ATOM     34  C   UNL     1       1.956  -5.432  34.863  0.00  0.00    +0.287 C 
ATOM     35  O   UNL     1       1.802  -5.491  36.113  0.00  0.00    -0.274 OA
BRANCH  34  36
ATOM     36  C   UNL     1       2.985  -4.523  34.351  0.00  0.00    +0.383 C 
ATOM     37  O   UNL     1       3.943  -4.992  33.689  0.00  0.00    -0.241 OA
BRANCH  36  38
ATOM     38  O   UNL     1       2.953  -3.166  34.562  0.00  0.00    -0.475 OA
ATOM     39  H   UNL     1       2.817  -2.583  33.840  0.00  0.00    +0.296 HD
ENDBRANCH  36  38
ENDBRANCH  34  36
ENDBRANCH  32  34
ENDBRANCH  28  32
ENDBRANCH   6  28
BRANCH   2  40
ATOM     40  O   UNL     1       0.498  -4.805  26.958  0.00  0.00    -0.219 OA
BRANCH  40  41
ATOM     41  S   UNL     1       1.390  -3.804  26.040  0.00  0.00    -0.027 S 
ATOM     42  O   UNL     1       0.654  -2.526  25.653  0.00  0.00    -0.075 OA
ATOM     43  O   UNL     1       2.041  -4.365  24.841  0.00  0.00    -0.075 OA
ATOM     44  H   UNL     1       2.406  -3.532  26.902  0.00  0.00    +0.215 HD
ENDBRANCH  40  41
ENDBRANCH   2  40
TORSDOF 13
ENDMDL
