MODEL 1
REMARK VINA RESULT:    -9.009      0.000      0.000
REMARK INTER + INTRA:         -14.134
REMARK INTER:                 -12.959
REMARK INTRA:                  -1.175
REMARK UNBOUND:                -1.175
REMARK  Name = =
REMARK  8 active torsions:
REMARK  status: ('A' for Active; 'I' for Inactive)
REMARK    1  A    between atoms: C_1  and  C_8
REMARK    2  A    between atoms: C_1  and  N_23
REMARK    3  A    between atoms: C_2  and  C_36
REMARK    4  A    between atoms: S_7  and  C_13
REMARK    5  A    between atoms: C_13  and  N_18
REMARK    6  A    between atoms: C_19  and  C_21
REMARK    7  A    between atoms: N_26  and  C_29
REMARK    8  A    between atoms: C_30  and  O_35
REMARK                            x       y       z     vdW  Elec       q    Type
REMARK                         _______ _______ _______ _____ _____    ______ ____
ROOT
ATOM      1  C   UNL     1     -21.169 -41.054  22.967  0.00  0.00    +0.062 C 
ATOM      2  C   UNL     1     -21.387 -39.926  22.073  0.00  0.00    +0.022 C 
ATOM      3  C   UNL     1     -22.234 -38.872  22.821  0.00  0.00    +0.066 C 
ATOM      4  C   UNL     1     -22.445 -39.403  24.176  0.00  0.00    +0.152 C 
ATOM      5  O   UNL     1     -22.702 -38.820  25.168  0.00  0.00    -0.296 OA
ATOM      6  C   UNL     1     -22.257 -40.853  24.000  0.00  0.00    +0.080 C 
ENDROOT
BRANCH   1   8
ATOM      7  S   UNL     1     -22.873 -43.254  22.920  0.00  0.00    -0.189 S 
ATOM      8  C   UNL     1     -21.479 -42.406  22.369  0.00  0.00    +0.061 C 
ATOM      9  C   UNL     1     -21.243 -42.650  20.952  0.00  0.00    +0.079 C 
ATOM     10  N   UNL     1     -22.305 -42.463  20.009  0.00  0.00    -0.296 NA
ATOM     11  C   UNL     1     -23.232 -43.584  20.243  0.00  0.00    +0.079 C 
ATOM     12  C   UNL     1     -23.984 -43.310  21.524  0.00  0.00    +0.057 C 
ATOM     13  H   UNL     1     -23.361 -42.586  23.999  0.00  0.00    +0.087 HD
ATOM     14  H   UNL     1     -21.945 -42.489  19.056  0.00  0.00    +0.123 HD
BRANCH   7  15
ATOM     15  C   UNL     1     -22.600 -44.947  23.581  0.00  0.00    +0.168 C 
ATOM     16  N   UNL     1     -22.130 -45.781  22.527  0.00  0.00    -0.269 NA
ATOM     17  C   UNL     1     -22.513 -47.126  22.711  0.00  0.00    +0.083 C 
ATOM     18  C   UNL     1     -24.034 -47.164  22.872  0.00  0.00    +0.078 C 
ATOM     19  S   UNL     1     -24.202 -45.690  23.966  0.00  0.00    -0.098 S 
ATOM     20  H   UNL     1     -22.516 -45.446  21.644  0.00  0.00    +0.126 HD
BRANCH  15  21
ATOM     21  N   UNL     1     -21.723 -44.984  24.673  0.00  0.00    -0.277 N 
ATOM     22  C   UNL     1     -21.999 -44.382  25.925  0.00  0.00    +0.248 C 
ATOM     23  O   UNL     1     -23.074 -43.757  26.155  0.00  0.00    -0.270 OA
ATOM     24  H   UNL     1     -20.865 -45.454  24.563  0.00  0.00    +0.152 HD
BRANCH  22  25
ATOM     25  C   UNL     1     -21.030 -44.467  27.010  0.00  0.00    +0.058 C 
ATOM     26  C   UNL     1     -21.411 -44.141  28.228  0.00  0.00    +0.005 C 
ENDBRANCH  22  25
ENDBRANCH  15  21
ENDBRANCH   7  15
ENDBRANCH   1   8
BRANCH   1  27
ATOM     27  N   UNL     1     -19.864 -41.087  23.558  0.00  0.00    -0.271 NA
ATOM     28  C   UNL     1     -18.843 -41.644  22.693  0.00  0.00    +0.094 C 
ATOM     29  C   UNL     1     -17.458 -41.433  23.371  0.00  0.00    +0.108 C 
ATOM     30  N   UNL     1     -17.417 -42.233  24.553  0.00  0.00    -0.302 N 
ATOM     31  C   UNL     1     -18.665 -42.816  24.932  0.00  0.00    +0.108 C 
ATOM     32  C   UNL     1     -19.731 -41.744  24.798  0.00  0.00    +0.094 C 
BRANCH  30  33
ATOM     33  C   UNL     1     -16.232 -42.423  25.277  0.00  0.00    +0.082 C 
ATOM     34  C   UNL     1     -15.082 -42.927  24.672  0.00  0.00    +0.147 C 
ATOM     35  C   UNL     1     -13.935 -43.112  25.386  0.00  0.00    +0.038 C 
ATOM     36  C   UNL     1     -13.848 -42.813  26.736  0.00  0.00    +0.003 C 
ATOM     37  C   UNL     1     -14.992 -42.316  27.328  0.00  0.00    +0.001 C 
ATOM     38  C   UNL     1     -16.155 -42.120  26.632  0.00  0.00    +0.018 C 
BRANCH  34  39
ATOM     39  O   UNL     1     -15.124 -43.238  23.327  0.00  0.00    -0.504 OA
ATOM     40  H   UNL     1     -15.757 -43.850  23.008  0.00  0.00    +0.292 HD
ENDBRANCH  34  39
ENDBRANCH  30  33
ENDBRANCH   1  27
BRANCH   2  41
ATOM     41  C   UNL     1     -20.406 -39.162  21.332  0.00  0.00    +0.002 C 
ATOM     42  C   UNL     1     -21.013 -37.741  21.202  0.00  0.00    +0.000 C 
ATOM     43  C   UNL     1     -21.100 -37.426  19.750  0.00  0.00    +0.000 C 
ATOM     44  C   UNL     1     -20.941 -38.745  19.007  0.00  0.00    +0.000 C 
ATOM     45  C   UNL     1     -20.008 -39.457  19.962  0.00  0.00    +0.000 C 
ENDBRANCH   2  41
TORSDOF 8
ENDMDL
