REMARK  Name = =
REMARK  13 active torsions:
REMARK  status: ('A' for Active; 'I' for Inactive)
REMARK    1  A    between atoms: C_1  and  O_25
REMARK    2  A    between atoms: C_4  and  N_9
REMARK    3  A    between atoms: N_9  and  C_10
REMARK    4  A    between atoms: C_10  and  S_15
REMARK    5  A    between atoms: C_16  and  P_20
REMARK    6  A    between atoms: P_20  and  O_21
REMARK    7  A    between atoms: P_20  and  O_23
REMARK    8  A    between atoms: O_21  and  O_22
REMARK    9  A    between atoms: O_25  and  C_27
REMARK   10  A    between atoms: C_26  and  C_32
REMARK   11  A    between atoms: C_32  and  O_34
REMARK   12  A    between atoms: O_34  and  O_35
REMARK   13  A    between atoms: O_35  and  N_36
REMARK                            x       y       z     vdW  Elec       q    Type
REMARK                         _______ _______ _______ _____ _____    ______ ____
ROOT
ATOM      1  C   UNL     1      51.713 158.969  29.953  0.00  0.00    +0.417 C 
ATOM      2  O   UNL     1      52.954 159.292  29.997  0.00  0.00    -0.225 OA
ATOM      3  N   UNL     1      51.415 157.649  29.576  0.00  0.00    -0.166 N 
ATOM      4  C   UNL     1      52.469 156.649  29.262  0.00  0.00    +0.165 C 
ATOM      5  C   UNL     1      51.837 155.426  29.884  0.00  0.00    +0.128 C 
ATOM      6  N   UNL     1      50.486 155.517  29.294  0.00  0.00    -0.285 N 
ATOM      7  C   UNL     1      50.211 156.937  29.379  0.00  0.00    +0.313 C 
ATOM      8  O   UNL     1      49.089 157.511  29.294  0.00  0.00    -0.252 OA
ATOM      9  H   UNL     1      49.918 154.797  28.935  0.00  0.00    +0.151 HD
ENDROOT
BRANCH   4  10
ATOM     10  N   UNL     1      52.647 156.454  27.889  0.00  0.00    -0.276 NA
ATOM     11  H   UNL     1      53.596 156.763  27.679  0.00  0.00    +0.125 HD
BRANCH  10  12
ATOM     12  C   UNL     1      52.504 155.202  27.286  0.00  0.00    +0.072 C 
ATOM     13  C   UNL     1      51.112 154.586  27.538  0.00  0.00    +0.024 C 
ATOM     14  C   UNL     1      51.441 153.110  27.546  0.00  0.00    +0.002 C 
ATOM     15  C   UNL     1      52.747 153.081  28.242  0.00  0.00    +0.002 C 
ATOM     16  C   UNL     1      53.331 154.237  28.099  0.00  0.00    +0.024 C 
BRANCH  12  17
ATOM     17  S   UNL     1      52.853 155.063  25.594  0.00  0.00    -0.174 S 
ATOM     18  C   UNL     1      54.308 154.230  24.951  0.00  0.00    +0.049 C 
ATOM     19  C   UNL     1      54.930 155.164  24.271  0.00  0.00    +0.009 C 
ATOM     20  C   UNL     1      54.360 156.449  24.216  0.00  0.00    +0.006 C 
ATOM     21  C   UNL     1      53.252 156.688  24.823  0.00  0.00    +0.015 C 
ATOM     22  H   UNL     1      51.713 154.375  25.318  0.00  0.00    +0.094 HD
BRANCH  18  23
ATOM     23  P   UNL     1      54.726 152.510  25.149  0.00  0.00    +0.160 P 
ATOM     24  H   UNL     1      55.984 152.099  25.541  0.00  0.00    +0.118 HD
BRANCH  23  25
ATOM     25  O   UNL     1      55.258 151.703  23.785  0.00  0.00    -0.351 OA
ATOM     26  H   UNL     1      54.570 151.734  23.102  0.00  0.00    +0.217 HD
ENDBRANCH  23  25
BRANCH  23  27
ATOM     27  O   UNL     1      54.014 151.977  26.357  0.00  0.00    -0.193 OA
BRANCH  27  28
ATOM     28  O   UNL     1      53.126 151.891  25.203  0.00  0.00    -0.245 OA
ATOM     29  H   UNL     1      52.277 151.509  25.476  0.00  0.00    +0.253 HD
ENDBRANCH  27  28
ENDBRANCH  23  27
ENDBRANCH  18  23
ENDBRANCH  12  17
ENDBRANCH  10  12
ENDBRANCH   4  10
BRANCH   1  30
ATOM     30  O   UNL     1      50.865 159.993  30.292  0.00  0.00    -0.410 OA
BRANCH  30  32
ATOM     31  C   UNL     1      50.752 161.760  31.909  0.00  0.00    +0.113 C 
ATOM     32  C   UNL     1      51.385 161.189  30.850  0.00  0.00    +0.156 C 
ATOM     33  C   UNL     1      52.519 161.763  30.316  0.00  0.00    +0.038 C 
ATOM     34  C   UNL     1      53.017 162.926  30.857  0.00  0.00    +0.003 C 
ATOM     35  C   UNL     1      52.405 163.550  31.940  0.00  0.00    +0.000 C 
ATOM     36  C   UNL     1      51.278 162.927  32.428  0.00  0.00    +0.010 C 
BRANCH  31  37
ATOM     37  C   UNL     1      49.539 161.144  32.462  0.00  0.00    +0.380 C 
ATOM     38  O   UNL     1      49.680 160.208  33.271  0.00  0.00    -0.242 OA
BRANCH  37  39
ATOM     39  O   UNL     1      48.296 161.561  32.125  0.00  0.00    -0.270 OA
BRANCH  39  40
ATOM     40  O   UNL     1      47.197 160.771  32.398  0.00  0.00    -0.035 OA
BRANCH  40  41
ATOM     41  N   UNL     1      46.851 159.733  31.565  0.00  0.00    +0.144 NA
ATOM     42  O   UNL     1      46.886 159.855  30.328  0.00  0.00    -0.066 OA
ENDBRANCH  40  41
ENDBRANCH  39  40
ENDBRANCH  37  39
ENDBRANCH  31  37
ENDBRANCH  30  32
ENDBRANCH   1  30
TORSDOF 13
REMARK  Name = =
REMARK  13 active torsions:
REMARK  status: ('A' for Active; 'I' for Inactive)
REMARK    1  A    between atoms: C_1  and  O_25
REMARK    2  A    between atoms: C_4  and  N_9
REMARK    3  A    between atoms: N_9  and  C_10
REMARK    4  A    between atoms: C_10  and  S_15
REMARK    5  A    between atoms: C_16  and  P_20
REMARK    6  A    between atoms: P_20  and  O_21
REMARK    7  A    between atoms: P_20  and  O_23
REMARK    8  A    between atoms: O_21  and  O_22
REMARK    9  A    between atoms: O_25  and  C_27
REMARK   10  A    between atoms: C_26  and  C_32
REMARK   11  A    between atoms: C_32  and  O_34
REMARK   12  A    between atoms: O_34  and  O_35
REMARK   13  A    between atoms: O_35  and  N_36
REMARK                            x       y       z     vdW  Elec       q    Type
REMARK                         _______ _______ _______ _____ _____    ______ ____
ROOT
ATOM      1  O   HOH     1      55.442 152.558  26.623  0.00  0.00    -0.253 OA
ATOM      2  H   HOH     0      56.412 152.558  26.623  0.00  0.00    +0.253 HD
ENDROOT
TORSDOF 0
