MODEL 1
REMARK VINA RESULT:    -7.557      0.000      0.000
REMARK INTER + INTRA:         -11.024
REMARK INTER:                  -9.987
REMARK INTRA:                  -1.037
REMARK UNBOUND:                -1.037
REMARK  Name = =
REMARK  7 active torsions:
REMARK  status: ('A' for Active; 'I' for Inactive)
REMARK    1  A    between atoms: C_1  and  O_14
REMARK    2  A    between atoms: O_14  and  P_15
REMARK    3  A    between atoms: P_15  and  O_17
REMARK    4  A    between atoms: P_15  and  O_18
REMARK    5  A    between atoms: O_18  and  P_19
REMARK    6  A    between atoms: P_19  and  O_21
REMARK    7  A    between atoms: P_19  and  O_22
REMARK                            x       y       z     vdW  Elec       q    Type
REMARK                         _______ _______ _______ _____ _____    ______ ____
ROOT
ATOM      1  C   UNL     1      50.556 163.284  41.909  0.00  0.00    +0.171 C 
ATOM      2  C   UNL     1      49.233 163.660  41.408  0.00  0.00    +0.009 C 
ATOM      3  C   UNL     1      48.457 162.557  41.122  0.00  0.00    -0.002 C 
ATOM      4  C   UNL     1      49.305 161.420  41.448  0.00  0.00    -0.002 C 
ATOM      5  C   UNL     1      50.540 161.806  41.912  0.00  0.00    +0.009 C 
ATOM      6  C   UNL     1      51.499 160.848  42.278  0.00  0.00    -0.002 C 
ATOM      7  C   UNL     1      51.243 159.504  42.189  0.00  0.00    -0.000 C 
ATOM      8  C   UNL     1      50.003 159.114  41.725  0.00  0.00    -0.000 C 
ATOM      9  C   UNL     1      49.051 160.054  41.360  0.00  0.00    -0.000 C 
ATOM     10  C   UNL     1      47.177 162.725  40.639  0.00  0.00    -0.000 C 
ATOM     11  C   UNL     1      46.611 163.946  40.420  0.00  0.00    -0.000 C 
ATOM     12  C   UNL     1      47.413 165.051  40.716  0.00  0.00    -0.000 C 
ATOM     13  C   UNL     1      48.694 164.927  41.199  0.00  0.00    -0.002 C 
ENDROOT
BRANCH   1  14
ATOM     14  O   UNL     1      51.596 163.745  41.109  0.00  0.00    -0.266 OA
BRANCH  14  15
ATOM     15  P   UNL     1      52.703 164.664  41.998  0.00  0.00    +0.485 P 
ATOM     16  O   UNL     1      51.983 165.691  42.812  0.00  0.00    -0.227 OA
BRANCH  15  17
ATOM     17  O   UNL     1      53.558 163.637  43.034  0.00  0.00    -0.302 OA
ATOM     18  H   UNL     1      53.039 162.834  43.195  0.00  0.00    +0.222 HD
ENDBRANCH  15  17
BRANCH  15  19
ATOM     19  O   UNL     1      53.755 165.407  40.893  0.00  0.00    -0.186 OA
BRANCH  19  20
ATOM     20  P   UNL     1      53.001 166.732  40.146  0.00  0.00    +0.481 P 
ATOM     21  O   UNL     1      53.272 168.003  40.919  0.00  0.00    -0.227 OA
BRANCH  20  22
ATOM     22  O   UNL     1      51.345 166.473  40.058  0.00  0.00    -0.302 OA
ATOM     23  H   UNL     1      50.953 166.587  40.938  0.00  0.00    +0.222 HD
ENDBRANCH  20  22
BRANCH  20  24
ATOM     24  O   UNL     1      53.598 166.878  38.569  0.00  0.00    -0.302 OA
ATOM     25  H   UNL     1      52.859 166.873  37.942  0.00  0.00    +0.222 HD
ENDBRANCH  20  24
ENDBRANCH  19  20
ENDBRANCH  15  19
ENDBRANCH  14  15
ENDBRANCH   1  14
TORSDOF 7
ENDMDL
