REMARK  Name = =
REMARK  9 active torsions:
REMARK  status: ('A' for Active; 'I' for Inactive)
REMARK    1  A    between atoms: C_1  and  C_20
REMARK    2  A    between atoms: C_8  and  N_12
REMARK    3  A    between atoms: C_19  and  O_25
REMARK    4  A    between atoms: O_25  and  S_26
REMARK    5  A    between atoms: C_29  and  C_34
REMARK    6  A    between atoms: C_29  and  N_35
REMARK    7  A    between atoms: C_31  and  C_32
REMARK    8  A    between atoms: C_31  and  O_38
REMARK    9  A    between atoms: C_32  and  C_34
REMARK                            x       y       z     vdW  Elec       q    Type
REMARK                         _______ _______ _______ _____ _____    ______ ____
ROOT
ATOM      1  C   UNL     1      52.600 156.408  28.788  0.00  0.00    +0.037 C 
ATOM      2  C   UNL     1      53.734 157.148  28.791  0.00  0.00    +0.074 C 
ATOM      3  N   UNL     1      53.493 158.364  29.367  0.00  0.00    -0.229 N 
ATOM      4  C   UNL     1      52.204 158.419  29.740  0.00  0.00    +0.060 C 
ATOM      5  C   UNL     1      51.638 157.215  29.388  0.00  0.00    +0.017 C 
ATOM      6  C   UNL     1      50.297 157.044  29.679  0.00  0.00    +0.003 C 
ATOM      7  C   UNL     1      49.552 158.024  30.292  0.00  0.00    +0.015 C 
ATOM      8  C   UNL     1      50.096 159.242  30.656  0.00  0.00    +0.049 C 
ATOM      9  C   UNL     1      51.442 159.415  30.364  0.00  0.00    +0.030 C 
ATOM     10  C   UNL     1      54.469 159.382  29.526  0.00  0.00    +0.311 C 
ATOM     11  O   UNL     1      55.648 159.219  29.133  0.00  0.00    -0.264 OA
ENDROOT
BRANCH   8  12
ATOM     12  N   UNL     1      49.380 160.269  31.256  0.00  0.00    -0.306 N 
ATOM     13  C   UNL     1      49.299 160.100  32.674  0.00  0.00    +0.110 C 
ATOM     14  C   UNL     1      49.950 161.277  33.339  0.00  0.00    +0.110 C 
ATOM     15  N   UNL     1      49.480 162.480  32.697  0.00  0.00    -0.216 NA
ATOM     16  C   UNL     1      48.066 162.380  32.501  0.00  0.00    +0.091 C 
ATOM     17  C   UNL     1      47.694 162.018  31.093  0.00  0.00    +0.040 C 
ATOM     18  C   UNL     1      48.215 160.715  30.600  0.00  0.00    +0.092 C 
ENDBRANCH   8  12
BRANCH   1  20
ATOM     19  C   UNL     1      52.355 154.649  27.009  0.00  0.00    +0.192 C 
ATOM     20  C   UNL     1      52.310 155.056  28.330  0.00  0.00    +0.119 C 
ATOM     21  N   UNL     1      51.924 154.136  29.277  0.00  0.00    -0.241 NA
ATOM     22  C   UNL     1      51.595 152.880  28.975  0.00  0.00    +0.099 C 
ATOM     23  C   UNL     1      51.625 152.433  27.675  0.00  0.00    +0.024 C 
ATOM     24  C   UNL     1      52.006 153.330  26.715  0.00  0.00    +0.043 C 
BRANCH  19  25
ATOM     25  O   UNL     1      52.723 155.507  26.034  0.00  0.00    -0.333 OA
BRANCH  25  26
ATOM     26  S   UNL     1      53.840 155.484  24.825  0.00  0.00    +0.224 S 
ATOM     27  O   UNL     1      54.916 156.518  25.076  0.00  0.00    -0.028 OA
ATOM     28  O   UNL     1      53.209 155.979  23.491  0.00  0.00    -0.122 OA
ENDBRANCH  25  26
ENDBRANCH  19  25
ENDBRANCH   1  20
TORSDOF 4
REMARK  Name = =
REMARK  9 active torsions:
REMARK  status: ('A' for Active; 'I' for Inactive)
REMARK    1  A    between atoms: C_1  and  C_20
REMARK    2  A    between atoms: C_8  and  N_12
REMARK    3  A    between atoms: C_19  and  O_25
REMARK    4  A    between atoms: O_25  and  S_26
REMARK    5  A    between atoms: C_29  and  C_34
REMARK    6  A    between atoms: C_29  and  N_35
REMARK    7  A    between atoms: C_31  and  C_32
REMARK    8  A    between atoms: C_31  and  O_38
REMARK    9  A    between atoms: C_32  and  C_34
REMARK                            x       y       z     vdW  Elec       q    Type
REMARK                         _______ _______ _______ _____ _____    ______ ____
ROOT
ATOM      1  C   UNL     1      55.301 151.798  25.059  0.00  0.00    +0.182 C 
ATOM      2  O   UNL     1      56.194 151.076  25.452  0.00  0.00    -0.293 OA
ENDROOT
BRANCH   1   3
ATOM      3  C   UNL     1      54.349 151.623  23.937  0.00  0.00    +0.202 C 
BRANCH   3   4
ATOM      4  O   UNL     1      53.939 151.860  23.477  0.00  0.00    -0.375 OA
ATOM      5  H   UNL     1      53.555 151.124  22.975  0.00  0.00    +0.211 HD
ENDBRANCH   3   4
ENDBRANCH   1   3
BRANCH   1   6
ATOM      6  C   UNL     1      54.959 153.123  25.689  0.00  0.00    +0.093 C 
BRANCH   6   7
ATOM      7  C   UNL     1      54.626 153.943  24.505  0.00  0.00    +0.133 C 
BRANCH   7   9
ATOM      8  C   UNL     1      53.776 153.000  23.668  0.00  0.00    +0.113 C 
ATOM      9  N   UNL     1      53.801 153.096  24.109  0.00  0.00    -0.267 NA
ENDBRANCH   7   9
ENDBRANCH   6   7
ENDBRANCH   1   6
TORSDOF 5
REMARK  Name = =
REMARK  9 active torsions:
REMARK  status: ('A' for Active; 'I' for Inactive)
REMARK    1  A    between atoms: C_1  and  C_20
REMARK    2  A    between atoms: C_8  and  N_12
REMARK    3  A    between atoms: C_19  and  O_25
REMARK    4  A    between atoms: O_25  and  S_26
REMARK    5  A    between atoms: C_29  and  C_34
REMARK    6  A    between atoms: C_29  and  N_35
REMARK    7  A    between atoms: C_31  and  C_32
REMARK    8  A    between atoms: C_31  and  O_38
REMARK    9  A    between atoms: C_32  and  C_34
REMARK                            x       y       z     vdW  Elec       q    Type
REMARK                         _______ _______ _______ _____ _____    ______ ____
ROOT
ATOM      1  C   UNL     1      55.155 153.966  22.186  0.00  0.00    +0.000 C 
ATOM      2  C   UNL     1      55.914 154.917  21.684  0.00  0.00    +0.000 C 
ENDROOT
TORSDOF 0
