REMARK  Name = =
REMARK  7 active torsions:
REMARK  status: ('A' for Active; 'I' for Inactive)
REMARK    1  A    between atoms: C_1  and  O_14
REMARK    2  A    between atoms: O_14  and  P_15
REMARK    3  A    between atoms: P_15  and  O_17
REMARK    4  A    between atoms: P_15  and  O_18
REMARK    5  A    between atoms: O_18  and  P_19
REMARK    6  A    between atoms: P_19  and  O_21
REMARK    7  A    between atoms: P_19  and  O_22
REMARK                            x       y       z     vdW  Elec       q    Type
REMARK                         _______ _______ _______ _____ _____    ______ ____
ROOT
ATOM      1  C   UNL     1      52.784 155.603  27.558  0.00  0.00    +0.171 C 
ATOM      2  C   UNL     1      52.522 154.174  27.378  0.00  0.00    +0.009 C 
ATOM      3  C   UNL     1      53.062 153.694  26.204  0.00  0.00    -0.002 C 
ATOM      4  C   UNL     1      53.700 154.852  25.596  0.00  0.00    -0.002 C 
ATOM      5  C   UNL     1      53.559 155.987  26.359  0.00  0.00    +0.009 C 
ATOM      6  C   UNL     1      54.108 157.208  25.936  0.00  0.00    -0.002 C 
ATOM      7  C   UNL     1      54.800 157.315  24.757  0.00  0.00    -0.000 C 
ATOM      8  C   UNL     1      54.944 156.177  23.989  0.00  0.00    -0.000 C 
ATOM      9  C   UNL     1      54.404 154.967  24.400  0.00  0.00    -0.000 C 
ATOM     10  C   UNL     1      52.911 152.365  25.872  0.00  0.00    -0.000 C 
ATOM     11  C   UNL     1      52.244 151.467  26.651  0.00  0.00    -0.000 C 
ATOM     12  C   UNL     1      51.704 151.973  27.836  0.00  0.00    -0.000 C 
ATOM     13  C   UNL     1      51.832 153.291  28.204  0.00  0.00    -0.002 C 
ENDROOT
BRANCH   1  14
ATOM     14  O   UNL     1      51.625 156.367  27.638  0.00  0.00    -0.266 OA
BRANCH  14  15
ATOM     15  P   UNL     1      51.487 157.130  29.141  0.00  0.00    +0.485 P 
ATOM     16  O   UNL     1      50.064 157.112  29.599  0.00  0.00    -0.227 OA
BRANCH  15  17
ATOM     17  O   UNL     1      52.440 156.299  30.265  0.00  0.00    -0.302 OA
ATOM     18  H   UNL     1      52.113 155.391  30.358  0.00  0.00    +0.222 HD
ENDBRANCH  15  17
BRANCH  15  19
ATOM     19  O   UNL     1      52.036 158.725  28.957  0.00  0.00    -0.186 OA
BRANCH  19  20
ATOM     20  P   UNL     1      51.281 159.751  30.079  0.00  0.00    +0.481 P 
ATOM     21  O   UNL     1      51.112 159.051  31.409  0.00  0.00    -0.227 OA
BRANCH  20  22
ATOM     22  O   UNL     1      49.779 160.225  29.501  0.00  0.00    -0.302 OA
ATOM     23  H   UNL     1      49.888 160.674  28.648  0.00  0.00    +0.222 HD
ENDBRANCH  20  22
BRANCH  20  24
ATOM     24  O   UNL     1      52.234 161.136  30.275  0.00  0.00    -0.302 OA
ATOM     25  H   UNL     1      53.108 160.882  30.609  0.00  0.00    +0.222 HD
ENDBRANCH  20  24
ENDBRANCH  19  20
ENDBRANCH  15  19
ENDBRANCH  14  15
ENDBRANCH   1  14
TORSDOF 7
