MODEL 1
REMARK VINA RESULT:    -9.733      0.000      0.000
REMARK INTER + INTRA:         -14.465
REMARK INTER:                 -12.862
REMARK INTRA:                  -1.603
REMARK UNBOUND:                -1.603
REMARK  Name = =
REMARK  6 active torsions:
REMARK  status: ('A' for Active; 'I' for Inactive)
REMARK    1  A    between atoms: C_1  and  C_28
REMARK    2  A    between atoms: C_4  and  O_36
REMARK    3  A    between atoms: C_5  and  C_11
REMARK    4  A    between atoms: C_6  and  O_37
REMARK    5  A    between atoms: C_28  and  N_31
REMARK    6  A    between atoms: O_37  and  N_38
REMARK                            x       y       z     vdW  Elec       q    Type
REMARK                         _______ _______ _______ _____ _____    ______ ____
ROOT
ATOM      1  C   UNL     1      -0.211  -5.260  30.252  0.00  0.00    +0.113 A 
ATOM      2  C   UNL     1      -1.523  -4.863  30.302  0.00  0.00    +0.142 A 
ATOM      3  C   UNL     1      -1.928  -3.678  29.722  0.00  0.00    +0.045 A 
ATOM      4  C   UNL     1      -0.973  -2.924  29.100  0.00  0.00    +0.134 A 
ATOM      5  C   UNL     1       0.378  -3.268  29.021  0.00  0.00    +0.075 A 
ATOM      6  C   UNL     1       0.747  -4.481  29.631  0.00  0.00    +0.176 A 
ATOM      7  C   UNL     1      -3.333  -3.172  29.783  0.00  0.00    +0.036 C 
ATOM      8  C   UNL     1      -4.248  -4.157  30.408  0.00  0.00    +0.052 C 
ATOM      9  C   UNL     1      -3.583  -4.900  31.521  0.00  0.00    +0.206 C 
ATOM     10  O   UNL     1      -2.488  -5.646  30.947  0.00  0.00    -0.476 OA
ENDROOT
BRANCH   5  11
ATOM     11  C   UNL     1       1.201  -2.530  28.105  0.00  0.00    +0.146 C 
ATOM     12  O   UNL     1       1.015  -2.853  26.753  0.00  0.00    -0.349 OA
ATOM     13  C   UNL     1       2.328  -3.146  26.254  0.00  0.00    +0.174 C 
ATOM     14  C   UNL     1       3.207  -1.907  26.387  0.00  0.00    +0.174 C 
ATOM     15  O   UNL     1       3.649  -1.557  25.133  0.00  0.00    -0.326 OA
ATOM     16  C   UNL     1       2.833  -0.656  24.544  0.00  0.00    +0.264 C 
ATOM     17  O   UNL     1       3.216  -0.267  23.270  0.00  0.00    -0.321 OA
ATOM     18  C   UNL     1       2.619  -1.043  22.283  0.00  0.00    +0.209 C 
ATOM     19  C   UNL     1       1.204  -1.308  22.502  0.00  0.00    +0.183 C 
ATOM     20  O   UNL     1       0.414  -1.439  21.551  0.00  0.00    -0.293 OA
ATOM     21  C   UNL     1       0.591  -1.445  23.868  0.00  0.00    +0.102 C 
ATOM     22  C   UNL     1       1.404  -0.667  24.850  0.00  0.00    +0.179 C 
ATOM     23  O   UNL     1       1.136  -0.836  26.168  0.00  0.00    -0.350 OA
ATOM     24  C   UNL     1       2.332  -0.759  26.944  0.00  0.00    +0.148 C 
ATOM     25  C   UNL     1       1.863  -1.246  28.371  0.00  0.00    +0.066 C 
ENDBRANCH   5  11
BRANCH   1  28
ATOM     26  N   UNL     1       0.098  -7.033  32.885  0.00  0.00    -0.024 NA
ATOM     27  N   UNL     1      -0.682  -6.999  31.861  0.00  0.00    -0.107 NA
ATOM     28  C   UNL     1       0.041  -6.685  30.681  0.00  0.00    +0.316 C 
ATOM     29  N   UNL     1       1.428  -6.547  31.259  0.00  0.00    -0.107 NA
ATOM     30  N   UNL     1       1.381  -6.751  32.483  0.00  0.00    -0.024 NA
BRANCH  28  31
ATOM     31  N   UNL     1       0.066  -7.651  29.641  0.00  0.00    -0.147 N 
ATOM     32  N   UNL     1       0.831  -7.882  28.603  0.00  0.00    -0.150 NA
ATOM     33  C   UNL     1       0.462  -8.925  27.873  0.00  0.00    +0.219 C 
ATOM     34  N   UNL     1      -0.641  -9.403  28.505  0.00  0.00    -0.203 NA
ATOM     35  C   UNL     1      -0.896  -8.648  29.582  0.00  0.00    +0.189 C 
ENDBRANCH  28  31
ENDBRANCH   1  28
BRANCH   4  36
ATOM     36  O   UNL     1      -1.380  -1.720  28.498  0.00  0.00    -0.506 OA
ATOM     37  H   UNL     1      -1.661  -1.002  29.030  0.00  0.00    +0.292 HD
ENDBRANCH   4  36
BRANCH   6  38
ATOM     38  O   UNL     1       2.029  -4.820  29.576  0.00  0.00    -0.383 OA
BRANCH  38  39
ATOM     39  N   UNL     1       2.840  -5.582  28.860  0.00  0.00    -0.132 N 
ATOM     40  C   UNL     1       4.141  -5.311  28.378  0.00  0.00    +0.336 C 
ATOM     41  O   UNL     1       4.586  -4.152  28.693  0.00  0.00    -0.250 OA
ATOM     42  N   UNL     1       4.948  -6.185  27.616  0.00  0.00    -0.257 N 
ATOM     43  C   UNL     1       6.297  -5.695  27.263  0.00  0.00    +0.127 C 
ATOM     44  C   UNL     1       7.245  -6.864  27.088  0.00  0.00    +0.164 C 
ATOM     45  O   UNL     1       6.655  -7.832  26.270  0.00  0.00    -0.350 OA
ATOM     46  C   UNL     1       5.666  -8.458  27.012  0.00  0.00    +0.164 C 
ATOM     47  C   UNL     1       4.513  -7.492  27.217  0.00  0.00    +0.127 C 
ATOM     48  H   UNL     1       2.484  -6.470  28.627  0.00  0.00    +0.197 HD
ENDBRANCH  38  39
ENDBRANCH   6  38
TORSDOF 6
ENDMDL
