REMARK  Name = =
REMARK  0 active torsions:
REMARK  status: ('A' for Active; 'I' for Inactive)
REMARK                            x       y       z     vdW  Elec       q    Type
REMARK                         _______ _______ _______ _____ _____    ______ ____
ROOT
ATOM      1 CL   UNL     1      47.367 160.674  31.626  0.00  0.00    -0.082 Cl
ATOM      2  C   UNL     1      48.802 159.928  30.945  0.00  0.00    +0.059 C 
ATOM      3  C   UNL     1      48.830 158.633  30.514  0.00  0.00    +0.027 C 
ATOM      4  C   UNL     1      49.961 158.009  29.965  0.00  0.00    +0.055 C 
ATOM      5  C   UNL     1      51.093 158.769  29.866  0.00  0.00    +0.043 C 
ATOM      6  C   UNL     1      51.092 160.070  30.290  0.00  0.00    +0.009 C 
ATOM      7  C   UNL     1      49.968 160.651  30.823  0.00  0.00    +0.012 C 
ATOM      8  S   UNL     1      52.581 158.041  29.174  0.00  0.00    -0.084 S 
ATOM      9  C   UNL     1      52.155 156.372  28.761  0.00  0.00    +0.043 C 
ATOM     10  C   UNL     1      50.898 155.890  28.988  0.00  0.00    +0.054 C 
ATOM     11  C   UNL     1      50.669 154.560  28.624  0.00  0.00    +0.015 C 
ATOM     12  C   UNL     1      51.614 153.740  28.068  0.00  0.00    +0.001 C 
ATOM     13  C   UNL     1      52.868 154.272  27.858  0.00  0.00    +0.001 C 
ATOM     14  C   UNL     1      53.125 155.594  28.210  0.00  0.00    +0.008 C 
ATOM     15  N   UNL     1      49.848 156.653  29.557  0.00  0.00    -0.312 N 
ATOM     16  H   UNL     1      48.977 156.211  29.678  0.00  0.00    +0.152 HD
ENDROOT
TORSDOF 0
