REMARK  Name = =
REMARK  3 active torsions:
REMARK  status: ('A' for Active; 'I' for Inactive)
REMARK    1  A    between atoms: N_15  and  N_16
REMARK    2  A    between atoms: N_16  and  O_19
REMARK    3  A    between atoms: O_19  and  C_20
REMARK                            x       y       z     vdW  Elec       q    Type
REMARK                         _______ _______ _______ _____ _____    ______ ____
ROOT
ATOM      1 CL   UNL     1      47.139 160.648  32.062  0.00  0.00    -0.082 Cl
ATOM      2  C   UNL     1      48.752 161.341  32.139  0.00  0.00    +0.059 C 
ATOM      3  C   UNL     1      49.782 160.869  31.352  0.00  0.00    +0.028 C 
ATOM      4  C   UNL     1      51.059 161.431  31.425  0.00  0.00    +0.080 C 
ATOM      5  C   UNL     1      51.204 162.465  32.320  0.00  0.00    +0.045 C 
ATOM      6  C   UNL     1      50.174 162.927  33.099  0.00  0.00    +0.009 C 
ATOM      7  C   UNL     1      48.943 162.380  33.024  0.00  0.00    +0.012 C 
ATOM      8  S   UNL     1      52.813 163.236  32.462  0.00  0.00    -0.084 S 
ATOM      9  C   UNL     1      53.871 162.390  31.330  0.00  0.00    +0.045 C 
ATOM     10  C   UNL     1      53.399 161.363  30.556  0.00  0.00    +0.079 C 
ATOM     11  C   UNL     1      54.299 160.763  29.703  0.00  0.00    +0.017 C 
ATOM     12  C   UNL     1      55.619 161.142  29.596  0.00  0.00    +0.001 C 
ATOM     13  C   UNL     1      56.071 162.171  30.379  0.00  0.00    +0.001 C 
ATOM     14  C   UNL     1      55.175 162.781  31.241  0.00  0.00    +0.008 C 
ATOM     15  N   UNL     1      52.061 160.897  30.593  0.00  0.00    -0.181 N 
ENDROOT
BRANCH  15  16
ATOM     16  N   UNL     1      51.737 159.826  29.732  0.00  0.00    -0.026 N 
ATOM     17  C   UNL     1      50.437 159.702  29.176  0.00  0.00    +0.357 C 
ATOM     18  O   UNL     1      50.060 158.787  28.401  0.00  0.00    -0.260 OA
BRANCH  16  19
ATOM     19  O   UNL     1      52.772 158.964  29.498  0.00  0.00    -0.309 OA
BRANCH  19  20
ATOM     20  C   UNL     1      52.644 157.610  29.339  0.00  0.00    +0.422 C 
ATOM     21  O   UNL     1      51.543 157.094  29.627  0.00  0.00    -0.225 OA
ATOM     22  N   UNL     1      53.759 156.859  28.859  0.00  0.00    -0.293 N 
ATOM     23  H   UNL     1      54.605 157.315  28.647  0.00  0.00    +0.148 HD
ATOM     24  H   UNL     1      53.682 155.885  28.740  0.00  0.00    +0.148 HD
ENDBRANCH  19  20
ENDBRANCH  16  19
ENDBRANCH  15  16
TORSDOF 3
