REMARK  Name = =
REMARK  8 active torsions:
REMARK  status: ('A' for Active; 'I' for Inactive)
REMARK    1  A    between atoms: N_1  and  C_4
REMARK    2  A    between atoms: N_1  and  N_21
REMARK    3  A    between atoms: C_2  and  C_29
REMARK    4  A    between atoms: C_4  and  C_15
REMARK    5  A    between atoms: C_11  and  O_20
REMARK    6  A    between atoms: C_12  and  O_19
REMARK    7  A    between atoms: C_33  and  N_35
REMARK    8  A    between atoms: N_38  and  N_39
REMARK                            x       y       z     vdW  Elec       q    Type
REMARK                         _______ _______ _______ _____ _____    ______ ____
ROOT
ATOM      1  N   UNL     1      51.316 158.544  29.537  0.00  0.00    -0.179 N 
ATOM      2  C   UNL     1      52.566 159.164  29.640  0.00  0.00    +0.267 C 
ATOM      3  O   UNL     1      53.554 158.392  29.202  0.00  0.00    -0.268 OA
ENDROOT
BRANCH   1   4
ATOM      4  C   UNL     1      50.003 158.994  29.845  0.00  0.00    +0.168 C 
ATOM      5  N   UNL     1      49.116 157.870  29.829  0.00  0.00    -0.278 NA
ATOM      6  C   UNL     1      47.963 157.836  30.586  0.00  0.00    +0.075 C 
ATOM      7  C   UNL     1      47.575 158.977  31.444  0.00  0.00    +0.043 C 
ATOM      8  C   UNL     1      48.750 159.737  31.883  0.00  0.00    -0.019 C 
ATOM      9  C   UNL     1      49.896 159.749  31.128  0.00  0.00    +0.011 C 
ATOM     10  C   UNL     1      50.951 160.492  31.617  0.00  0.00    +0.038 C 
ATOM     11  C   UNL     1      50.873 161.204  32.821  0.00  0.00    +0.167 C 
ATOM     12  C   UNL     1      49.726 161.191  33.576  0.00  0.00    +0.167 C 
ATOM     13  C   UNL     1      48.672 160.448  33.087  0.00  0.00    +0.035 C 
ATOM     14  H   UNL     1      49.671 157.065  30.118  0.00  0.00    +0.125 HD
BRANCH   4  16
ATOM     15  N   UNL     1      50.044 160.197  27.629  0.00  0.00    -0.168 NA
ATOM     16  C   UNL     1      49.485 159.883  28.728  0.00  0.00    +0.184 C 
ATOM     17  C   UNL     1      48.189 160.620  28.737  0.00  0.00    +0.025 C 
ATOM     18  C   UNL     1      48.183 161.350  27.476  0.00  0.00    +0.119 C 
ATOM     19  N   UNL     1      49.284 161.063  26.881  0.00  0.00    -0.151 NA
ENDBRANCH   4  16
BRANCH  12  20
ATOM     20  O   UNL     1      49.581 161.872  34.777  0.00  0.00    -0.503 OA
ATOM     21  H   UNL     1      50.292 162.379  35.117  0.00  0.00    +0.292 HD
ENDBRANCH  12  20
BRANCH  11  22
ATOM     22  O   UNL     1      51.974 161.925  33.242  0.00  0.00    -0.503 OA
ATOM     23  H   UNL     1      52.755 161.932  32.725  0.00  0.00    +0.292 HD
ENDBRANCH  11  22
ENDBRANCH   1   4
BRANCH   1  24
ATOM     24  N   UNL     1      51.421 157.146  29.079  0.00  0.00    -0.149 N 
ATOM     25  C   UNL     1      51.072 156.089  29.945  0.00  0.00    +0.248 C 
ATOM     26  O   UNL     1      50.484 156.263  31.031  0.00  0.00    -0.273 OA
ATOM     27  C   UNL     1      51.421 154.705  29.546  0.00  0.00    +0.088 C 
ATOM     28  C   UNL     1      51.231 154.466  28.082  0.00  0.00    +0.019 C 
ATOM     29  C   UNL     1      51.805 155.514  27.207  0.00  0.00    +0.088 C 
ATOM     30  C   UNL     1      51.929 156.857  27.795  0.00  0.00    +0.248 C 
ATOM     31  O   UNL     1      52.507 157.802  27.147  0.00  0.00    -0.273 OA
ENDBRANCH   1  24
BRANCH   2  32
ATOM     32  C   UNL     1      53.046 160.433  30.099  0.00  0.00    +0.056 C 
ATOM     33  C   UNL     1      52.481 161.659  29.842  0.00  0.00    +0.005 C 
ATOM     34  C   UNL     1      53.031 162.870  30.266  0.00  0.00    +0.001 C 
ATOM     35  C   UNL     1      54.185 162.885  30.975  0.00  0.00    +0.015 C 
ATOM     36  C   UNL     1      54.792 161.693  31.262  0.00  0.00    +0.052 C 
ATOM     37  C   UNL     1      54.229 160.494  30.830  0.00  0.00    +0.019 C 
BRANCH  36  38
ATOM     38  N   UNL     1      55.989 161.641  32.017  0.00  0.00    -0.267 N 
ATOM     39  C   UNL     1      56.462 162.579  32.947  0.00  0.00    +0.321 C 
ATOM     40  O   UNL     1      55.781 163.601  33.179  0.00  0.00    -0.251 OA
ATOM     41  N   UNL     1      57.721 162.373  33.630  0.00  0.00    -0.189 N 
ATOM     42  H   UNL     1      56.558 160.851  31.872  0.00  0.00    +0.156 HD
ATOM     43  H   UNL     1      58.261 161.569  33.451  0.00  0.00    +0.175 HD
BRANCH  41  44
ATOM     44  N   UNL     1      58.157 163.324  34.541  0.00  0.00    +0.051 NA
ATOM     45  O   UNL     1      59.360 163.593  34.730  0.00  0.00    -0.079 OA
ENDBRANCH  41  44
ENDBRANCH  36  38
ENDBRANCH   2  32
TORSDOF 8
