REMARK  Name = =
REMARK  0 active torsions:
REMARK  status: ('A' for Active; 'I' for Inactive)
REMARK                            x       y       z     vdW  Elec       q    Type
REMARK                         _______ _______ _______ _____ _____    ______ ____
ROOT
ATOM      1  N   UNL     1      52.122 156.075  28.029  0.00  0.00    -0.295 NA
ATOM      2  C   UNL     1      52.770 155.723  26.834  0.00  0.00    +0.086 C 
ATOM      3  C   UNL     1      53.007 154.291  26.568  0.00  0.00    +0.086 C 
ATOM      4  N   UNL     1      53.117 153.443  27.696  0.00  0.00    -0.295 NA
ATOM      5  C   UNL     1      52.058 153.687  28.624  0.00  0.00    +0.086 C 
ATOM      6  C   UNL     1      52.063 155.122  29.066  0.00  0.00    +0.086 C 
ATOM      7  H   UNL     1      52.600 156.896  28.401  0.00  0.00    +0.123 HD
ATOM      8  H   UNL     1      54.011 153.615  28.157  0.00  0.00    +0.123 HD
ENDROOT
TORSDOF 0
