REMARK  Name = =
REMARK  1 active torsions:
REMARK  status: ('A' for Active; 'I' for Inactive)
REMARK    1  A    between atoms: C_6  and  N_7
REMARK                            x       y       z     vdW  Elec       q    Type
REMARK                         _______ _______ _______ _____ _____    ______ ____
ROOT
ATOM      1  N   UNL     1      53.359 155.426  27.453  0.00  0.00    -0.265 NA
ATOM      2  C   UNL     1      52.664 156.380  28.292  0.00  0.00    +0.163 C 
ATOM      3  N   UNL     1      51.710 155.656  29.111  0.00  0.00    -0.319 N 
ATOM      4  C   UNL     1      50.993 154.600  28.481  0.00  0.00    +0.057 C 
ATOM      5  C   UNL     1      51.326 154.273  27.247  0.00  0.00    +0.022 C 
ATOM      6  C   UNL     1      52.399 154.937  26.473  0.00  0.00    +0.141 C 
ATOM      7  H   UNL     1      53.707 154.652  28.018  0.00  0.00    +0.126 HD
ATOM      8  H   UNL     1      51.565 155.884  30.058  0.00  0.00    +0.148 HD
ENDROOT
BRANCH   6   9
ATOM      9  N   UNL     1      52.960 154.020  25.556  0.00  0.00    -0.255 NA
ATOM     10  C   UNL     1      53.091 152.669  25.946  0.00  0.00    +0.091 C 
ATOM     11  C   UNL     1      54.555 152.313  26.161  0.00  0.00    +0.086 C 
ATOM     12  N   UNL     1      55.224 152.558  24.916  0.00  0.00    -0.295 NA
ATOM     13  C   UNL     1      55.153 153.908  24.455  0.00  0.00    +0.086 C 
ATOM     14  C   UNL     1      53.776 154.504  24.529  0.00  0.00    +0.091 C 
ATOM     15  H   UNL     1      54.804 151.958  24.206  0.00  0.00    +0.123 HD
ENDBRANCH   6   9
TORSDOF 1
