REMARK  Name = =
REMARK  4 active torsions:
REMARK  status: ('A' for Active; 'I' for Inactive)
REMARK    1  A    between atoms: N_1  and  C_13
REMARK    2  A    between atoms: C_6  and  N_7
REMARK    3  A    between atoms: C_13  and  O_14
REMARK    4  A    between atoms: O_14  and  C_16
REMARK                            x       y       z     vdW  Elec       q    Type
REMARK                         _______ _______ _______ _____ _____    ______ ____
ROOT
ATOM      1  N   UNL     1      53.762 153.412  26.859  0.00  0.00    -0.202 NA
ATOM      2  C   UNL     1      53.420 153.554  28.312  0.00  0.00    +0.169 C 
ATOM      3  N   UNL     1      52.143 152.949  28.504  0.00  0.00    -0.318 N 
ATOM      4  C   UNL     1      51.211 153.186  27.429  0.00  0.00    +0.057 C 
ATOM      5  C   UNL     1      51.597 153.823  26.335  0.00  0.00    +0.022 C 
ATOM      6  C   UNL     1      53.042 154.321  26.190  0.00  0.00    +0.147 C 
ATOM      7  H   UNL     1      51.917 152.416  29.301  0.00  0.00    +0.148 HD
ENDROOT
BRANCH   6   8
ATOM      8  N   UNL     1      53.090 154.849  24.951  0.00  0.00    -0.255 NA
ATOM      9  C   UNL     1      53.566 154.469  23.740  0.00  0.00    +0.091 C 
ATOM     10  C   UNL     1      55.088 154.704  23.617  0.00  0.00    +0.086 C 
ATOM     11  N   UNL     1      55.323 156.090  23.871  0.00  0.00    -0.295 NA
ATOM     12  C   UNL     1      54.723 156.614  25.056  0.00  0.00    +0.086 C 
ATOM     13  C   UNL     1      53.224 156.327  25.036  0.00  0.00    +0.091 C 
ATOM     14  H   UNL     1      54.963 156.619  23.077  0.00  0.00    +0.123 HD
ENDBRANCH   6   8
BRANCH   1  15
ATOM     15  C   UNL     1      55.006 152.880  26.826  0.00  0.00    +0.287 C 
BRANCH  15  16
ATOM     16  O   UNL     1      55.031 151.907  25.825  0.00  0.00    -0.458 OA
BRANCH  16  18
ATOM     17  C   UNL     1      54.789 149.884  24.606  0.00  0.00    +0.037 C 
ATOM     18  C   UNL     1      54.313 150.822  25.538  0.00  0.00    +0.140 C 
ATOM     19  C   UNL     1      53.085 150.540  26.105  0.00  0.00    +0.037 C 
ATOM     20  C   UNL     1      52.370 149.404  25.770  0.00  0.00    +0.003 C 
ATOM     21  C   UNL     1      52.839 148.477  24.842  0.00  0.00    +0.000 C 
ATOM     22  C   UNL     1      54.090 148.766  24.268  0.00  0.00    +0.003 C 
ENDBRANCH  16  18
ENDBRANCH  15  16
ENDBRANCH   1  15
TORSDOF 4
