MODEL 1
REMARK VINA RESULT:   -10.873      0.000      0.000
REMARK INTER + INTRA:         -14.198
REMARK INTER:                 -12.780
REMARK INTRA:                  -1.418
REMARK UNBOUND:                -1.418
REMARK  Name = =
REMARK  3 active torsions:
REMARK  status: ('A' for Active; 'I' for Inactive)
REMARK    1  A    between atoms: C_1  and  C_37
REMARK    2  A    between atoms: C_26  and  C_27
REMARK    3  A    between atoms: C_37  and  C_39
REMARK                            x       y       z     vdW  Elec       q    Type
REMARK                         _______ _______ _______ _____ _____    ______ ____
ROOT
ATOM      1  C   UNL     1       1.738  -9.334  26.944  0.00  0.00    +0.121 C 
ATOM      2  N   UNL     1       0.427  -9.114  27.192  0.00  0.00    -0.145 NA
ATOM      3  N   UNL     1      -0.036  -8.177  27.996  0.00  0.00    -0.133 NA
ATOM      4  C   UNL     1       0.787  -7.349  28.644  0.00  0.00    +0.157 C 
ATOM      5  N   UNL     1       0.350  -6.327  29.540  0.00  0.00    -0.271 N 
ATOM      6  C   UNL     1      -0.942  -6.540  30.049  0.00  0.00    +0.052 C 
ATOM      7  C   UNL     1      -1.003  -7.599  31.063  0.00  0.00    +0.015 C 
ATOM      8  C   UNL     1      -2.119  -7.558  32.003  0.00  0.00    +0.001 C 
ATOM      9  C   UNL     1      -3.046  -6.540  32.044  0.00  0.00    +0.003 C 
ATOM     10  C   UNL     1      -2.922  -5.453  31.091  0.00  0.00    +0.038 C 
ATOM     11  C   UNL     1      -1.879  -5.441  30.144  0.00  0.00    +0.013 C 
ATOM     12  C   UNL     1      -1.721  -4.399  29.244  0.00  0.00    -0.016 C 
ATOM     13  C   UNL     1      -2.614  -3.366  29.292  0.00  0.00    +0.036 C 
ATOM     14  C   UNL     1      -3.646  -3.341  30.199  0.00  0.00    +0.176 C 
ATOM     15  C   UNL     1      -3.791  -4.378  31.087  0.00  0.00    +0.176 C 
ATOM     16  O   UNL     1      -4.893  -4.130  31.895  0.00  0.00    -0.435 OA
ATOM     17  C   UNL     1      -5.483  -2.948  31.436  0.00  0.00    +0.429 C 
ATOM     18  O   UNL     1      -4.657  -2.429  30.440  0.00  0.00    -0.435 OA
ATOM     19  C   UNL     1      -0.589  -4.436  28.286  0.00  0.00    +0.048 C 
ATOM     20  C   UNL     1       0.615  -5.013  29.006  0.00  0.00    +0.102 C 
ATOM     21  C   UNL     1      -4.075  -6.560  32.971  0.00  0.00    +0.000 C 
ATOM     22  C   UNL     1      -4.156  -7.619  33.852  0.00  0.00    +0.000 C 
ATOM     23  C   UNL     1      -3.239  -8.661  33.840  0.00  0.00    +0.000 C 
ATOM     24  C   UNL     1      -2.230  -8.621  32.915  0.00  0.00    +0.000 C 
ATOM     25  C   UNL     1       2.133  -7.528  28.431  0.00  0.00    +0.040 C 
ATOM     26  C   UNL     1       2.645  -8.519  27.581  0.00  0.00    +0.043 C 
ENDROOT
BRANCH  26  27
ATOM     27  C   UNL     1       4.083  -8.699  27.447  0.00  0.00    +0.100 C 
ATOM     28  C   UNL     1       4.757  -8.102  26.410  0.00  0.00    +0.099 C 
ATOM     29  C   UNL     1       6.098  -8.274  26.284  0.00  0.00    +0.021 C 
ATOM     30  C   UNL     1       6.773  -9.047  27.198  0.00  0.00    +0.022 C 
ATOM     31  C   UNL     1       6.081  -9.644  28.237  0.00  0.00    +0.099 C 
ATOM     32  N   UNL     1       4.758  -9.448  28.324  0.00  0.00    -0.242 NA
ATOM     33  C   UNL     1       6.767  -7.662  25.227  0.00  0.00    +0.003 C 
ATOM     34  C   UNL     1       6.080  -6.896  24.324  0.00  0.00    +0.021 C 
ATOM     35  C   UNL     1       4.723  -6.749  24.488  0.00  0.00    +0.099 C 
ATOM     36  N   UNL     1       4.083  -7.334  25.501  0.00  0.00    -0.242 NA
ENDBRANCH  26  27
BRANCH   1  37
ATOM     37  C   UNL     1       2.137 -10.380  26.009  0.00  0.00    +0.091 C 
ATOM     38  N   UNL     1       2.268 -10.181  24.759  0.00  0.00    -0.297 NA
ATOM     39  H   UNL     1       2.107  -9.284  24.383  0.00  0.00    +0.187 HD
BRANCH  37  40
ATOM     40  C   UNL     1       2.396 -11.769  26.527  0.00  0.00    +0.017 C 
ATOM     41  C   UNL     1       1.373 -12.712  26.063  0.00  0.00    -0.003 C 
ATOM     42  C   UNL     1       1.653 -13.807  25.382  0.00  0.00    +0.114 C 
ATOM     43  N   UNL     1       2.984 -14.171  25.038  0.00  0.00    -0.328 N 
ATOM     44  C   UNL     1       4.025 -13.304  25.458  0.00  0.00    +0.058 C 
ATOM     45  C   UNL     1       3.728 -12.216  26.135  0.00  0.00    +0.017 C 
ATOM     46  H   UNL     1       3.176 -14.992  24.530  0.00  0.00    +0.147 HD
ENDBRANCH  37  40
ENDBRANCH   1  37
TORSDOF 3
ENDMDL
