REMARK  Name = =
REMARK  3 active torsions:
REMARK  status: ('A' for Active; 'I' for Inactive)
REMARK    1  A    between atoms: C_1  and  C_37
REMARK    2  A    between atoms: C_26  and  C_27
REMARK    3  A    between atoms: C_37  and  C_39
REMARK                            x       y       z     vdW  Elec       q    Type
REMARK                         _______ _______ _______ _____ _____    ______ ____
ROOT
ATOM      1  C   UNL     1      -0.980  -7.496  28.759  0.00  0.00    +0.121 C 
ATOM      2  N   UNL     1      -1.338  -8.615  28.091  0.00  0.00    -0.145 NA
ATOM      3  N   UNL     1      -0.559  -9.268  27.252  0.00  0.00    -0.133 NA
ATOM      4  C   UNL     1       0.684  -8.855  26.994  0.00  0.00    +0.157 C 
ATOM      5  N   UNL     1       1.571  -9.507  26.084  0.00  0.00    -0.271 N 
ATOM      6  C   UNL     1       0.915 -10.320  25.145  0.00  0.00    +0.052 C 
ATOM      7  C   UNL     1       0.228  -9.561  24.094  0.00  0.00    +0.015 C 
ATOM      8  C   UNL     1      -0.026 -10.249  22.832  0.00  0.00    +0.001 C 
ATOM      9  C   UNL     1       0.424 -11.521  22.552  0.00  0.00    +0.003 C 
ATOM     10  C   UNL     1       1.179 -12.227  23.570  0.00  0.00    +0.038 C 
ATOM     11  C   UNL     1       1.442 -11.627  24.817  0.00  0.00    +0.013 C 
ATOM     12  C   UNL     1       2.187 -12.269  25.794  0.00  0.00    -0.016 C 
ATOM     13  C   UNL     1       2.667 -13.519  25.520  0.00  0.00    +0.036 C 
ATOM     14  C   UNL     1       2.430 -14.139  24.317  0.00  0.00    +0.176 C 
ATOM     15  C   UNL     1       1.693 -13.493  23.357  0.00  0.00    +0.176 C 
ATOM     16  O   UNL     1       1.590 -14.311  22.239  0.00  0.00    -0.435 OA
ATOM     17  C   UNL     1       2.215 -15.521  22.556  0.00  0.00    +0.429 C 
ATOM     18  O   UNL     1       2.799 -15.373  23.813  0.00  0.00    -0.435 OA
ATOM     19  C   UNL     1       2.447 -11.574  27.078  0.00  0.00    +0.048 C 
ATOM     20  C   UNL     1       2.685 -10.107  26.777  0.00  0.00    +0.102 C 
ATOM     21  C   UNL     1       0.155 -12.110  21.328  0.00  0.00    +0.000 C 
ATOM     22  C   UNL     1      -0.573 -11.402  20.394  0.00  0.00    +0.000 C 
ATOM     23  C   UNL     1      -1.042 -10.119  20.642  0.00  0.00    +0.000 C 
ATOM     24  C   UNL     1      -0.764  -9.555  21.859  0.00  0.00    +0.000 C 
ATOM     25  C   UNL     1       1.103  -7.719  27.645  0.00  0.00    +0.040 C 
ATOM     26  C   UNL     1       0.289  -7.010  28.540  0.00  0.00    +0.043 C 
ENDROOT
BRANCH  26  27
ATOM     27  C   UNL     1       0.767  -5.778  29.149  0.00  0.00    +0.100 C 
ATOM     28  C   UNL     1       1.344  -5.805  30.395  0.00  0.00    +0.099 C 
ATOM     29  C   UNL     1       1.787  -4.654  30.963  0.00  0.00    +0.021 C 
ATOM     30  C   UNL     1       1.654  -3.466  30.285  0.00  0.00    +0.022 C 
ATOM     31  C   UNL     1       1.069  -3.453  29.030  0.00  0.00    +0.099 C 
ATOM     32  N   UNL     1       0.646  -4.612  28.507  0.00  0.00    -0.242 NA
ATOM     33  C   UNL     1       2.369  -4.698  32.227  0.00  0.00    +0.003 C 
ATOM     34  C   UNL     1       2.493  -5.890  32.891  0.00  0.00    +0.021 C 
ATOM     35  C   UNL     1       2.030  -7.031  32.279  0.00  0.00    +0.099 C 
ATOM     36  N   UNL     1       1.474  -6.988  31.069  0.00  0.00    -0.242 NA
ENDBRANCH  26  27
BRANCH   1  37
ATOM     37  C   UNL     1      -1.914  -6.872  29.691  0.00  0.00    +0.091 C 
ATOM     38  N   UNL     1      -2.218  -5.637  29.646  0.00  0.00    -0.297 NA
ATOM     39  H   UNL     1      -1.825  -5.058  28.953  0.00  0.00    +0.187 HD
BRANCH  37  40
ATOM     40  C   UNL     1      -2.544  -7.710  30.771  0.00  0.00    +0.017 C 
ATOM     41  C   UNL     1      -1.531  -8.440  31.540  0.00  0.00    -0.003 C 
ATOM     42  C   UNL     1      -1.398  -8.334  32.848  0.00  0.00    +0.114 C 
ATOM     43  N   UNL     1      -2.236  -7.494  33.633  0.00  0.00    -0.328 N 
ATOM     44  C   UNL     1      -3.240  -6.758  32.953  0.00  0.00    +0.058 C 
ATOM     45  C   UNL     1      -3.358  -6.876  31.648  0.00  0.00    +0.017 C 
ATOM     46  H   UNL     1      -2.124  -7.426  34.609  0.00  0.00    +0.147 HD
ENDBRANCH  37  40
ENDBRANCH   1  37
TORSDOF 3
