MODEL 1
REMARK VINA RESULT:    -6.807      0.000      0.000
REMARK INTER + INTRA:          -9.466
REMARK INTER:                  -8.797
REMARK INTRA:                  -0.669
REMARK UNBOUND:                -0.669
REMARK  Name = =
REMARK  5 active torsions:
REMARK  status: ('A' for Active; 'I' for Inactive)
REMARK    1  A    between atoms: C_1  and  N_12
REMARK    2  A    between atoms: C_1  and  N_29
REMARK    3  A    between atoms: C_21  and  N_23
REMARK    4  A    between atoms: N_29  and  C_33
REMARK    5  A    between atoms: N_32  and  N_43
REMARK                            x       y       z     vdW  Elec       q    Type
REMARK                         _______ _______ _______ _____ _____    ______ ____
ROOT
ATOM      1  C   UNL     1      60.751 162.057  39.614  0.00  0.00    +0.246 C 
ATOM      2  C   UNL     1      60.949 161.910  41.145  0.00  0.00    +0.253 C 
ATOM      3  O   UNL     1      61.538 163.068  41.658  0.00  0.00    -0.445 OA
ATOM      4  C   UNL     1      62.713 163.651  41.277  0.00  0.00    +0.317 C 
ATOM      5  O   UNL     1      62.781 164.883  41.078  0.00  0.00    -0.250 OA
ATOM      6  C   UNL     1      63.927 162.831  41.095  0.00  0.00    +0.113 C 
ATOM      7  C   UNL     1      64.697 163.388  39.931  0.00  0.00    +0.059 C 
ATOM      8  C   UNL     1      64.242 162.899  38.604  0.00  0.00    +0.209 C 
ATOM      9  O   UNL     1      62.975 162.433  38.497  0.00  0.00    -0.446 OA
ATOM     10  C   UNL     1      62.065 161.636  39.055  0.00  0.00    +0.352 C 
ATOM     11  O   UNL     1      62.175 160.344  39.202  0.00  0.00    -0.247 OA
ENDROOT
BRANCH   1  12
ATOM     12  N   UNL     1      60.436 163.450  39.397  0.00  0.00    -0.247 NA
ATOM     13  C   UNL     1      60.897 164.097  38.265  0.00  0.00    +0.079 C 
ATOM     14  C   UNL     1      59.932 165.161  37.694  0.00  0.00    +0.043 C 
ATOM     15  C   UNL     1      59.959 166.325  38.609  0.00  0.00    -0.023 C 
ATOM     16  C   UNL     1      59.682 166.346  39.954  0.00  0.00    -0.010 C 
ATOM     17  C   UNL     1      59.777 167.511  40.705  0.00  0.00    -0.003 C 
ATOM     18  C   UNL     1      60.156 168.681  40.091  0.00  0.00    -0.000 C 
ATOM     19  C   UNL     1      60.434 168.683  38.763  0.00  0.00    -0.000 C 
ATOM     20  C   UNL     1      60.334 167.502  38.025  0.00  0.00    -0.004 C 
ATOM     21  C   UNL     1      59.257 165.199  40.776  0.00  0.00    +0.096 C 
ATOM     22  C   UNL     1      59.290 163.865  40.073  0.00  0.00    +0.094 C 
BRANCH  21  23
ATOM     23  N   UNL     1      57.922 165.345  41.278  0.00  0.00    -0.269 NA
ATOM     24  C   UNL     1      56.851 165.352  40.385  0.00  0.00    +0.072 C 
ATOM     25  C   UNL     1      55.631 166.108  40.843  0.00  0.00    +0.017 C 
ATOM     26  C   UNL     1      55.725 166.480  42.310  0.00  0.00    +0.003 C 
ATOM     27  C   UNL     1      56.263 165.270  43.033  0.00  0.00    +0.017 C 
ATOM     28  C   UNL     1      57.714 165.126  42.650  0.00  0.00    +0.072 C 
ENDBRANCH  21  23
ENDBRANCH   1  12
BRANCH   1  29
ATOM     29  N   UNL     1      59.723 161.135  39.174  0.00  0.00    -0.204 N 
ATOM     30  C   UNL     1      59.108 161.103  37.906  0.00  0.00    +0.326 C 
ATOM     31  O   UNL     1      58.060 160.374  37.770  0.00  0.00    -0.251 OA
ATOM     32  N   UNL     1      59.530 161.788  36.756  0.00  0.00    -0.189 N 
ATOM     33  H   UNL     1      60.330 162.359  36.795  0.00  0.00    +0.175 HD
BRANCH  29  34
ATOM     34  C   UNL     1      59.140 160.179  40.099  0.00  0.00    +0.158 C 
ATOM     35  C   UNL     1      58.022 160.475  40.833  0.00  0.00    +0.113 C 
ATOM     36  C   UNL     1      57.540 159.486  41.707  0.00  0.00    +0.022 C 
ATOM     37  C   UNL     1      58.194 158.286  41.790  0.00  0.00    +0.022 C 
ATOM     38  C   UNL     1      59.315 158.037  41.029  0.00  0.00    +0.100 C 
ATOM     39  N   UNL     1      59.727 159.007  40.220  0.00  0.00    -0.227 NA
ATOM     40  C   UNL     1      56.421 159.711  42.481  0.00  0.00    +0.003 C 
ATOM     41  C   UNL     1      55.788 160.914  42.382  0.00  0.00    +0.021 C 
ATOM     42  C   UNL     1      56.294 161.858  41.515  0.00  0.00    +0.099 C 
ATOM     43  N   UNL     1      57.375 161.626  40.774  0.00  0.00    -0.241 NA
ENDBRANCH  29  34
BRANCH  32  44
ATOM     44  N   UNL     1      58.811 161.665  35.532  0.00  0.00    +0.051 NA
ATOM     45  O   UNL     1      58.947 162.566  34.649  0.00  0.00    -0.079 OA
ENDBRANCH  32  44
ENDBRANCH   1  29
TORSDOF 5
ENDMDL
