REMARK  Name = =
REMARK  5 active torsions:
REMARK  status: ('A' for Active; 'I' for Inactive)
REMARK    1  A    between atoms: C_1  and  N_12
REMARK    2  A    between atoms: C_1  and  N_29
REMARK    3  A    between atoms: C_21  and  N_23
REMARK    4  A    between atoms: N_29  and  C_33
REMARK    5  A    between atoms: N_32  and  N_43
REMARK                            x       y       z     vdW  Elec       q    Type
REMARK                         _______ _______ _______ _____ _____    ______ ____
ROOT
ATOM      1  C   UNL     1      40.569 160.445  23.204  0.00  0.00    +0.246 C 
ATOM      2  C   UNL     1      41.825 159.778  23.821  0.00  0.00    +0.253 C 
ATOM      3  O   UNL     1      41.942 160.143  25.164  0.00  0.00    -0.445 OA
ATOM      4  C   UNL     1      42.007 161.403  25.688  0.00  0.00    +0.317 C 
ATOM      5  O   UNL     1      41.313 161.721  26.678  0.00  0.00    -0.250 OA
ATOM      6  C   UNL     1      42.903 162.413  25.091  0.00  0.00    +0.113 C 
ATOM      7  C   UNL     1      42.216 163.747  25.160  0.00  0.00    +0.059 C 
ATOM      8  C   UNL     1      41.274 164.011  24.042  0.00  0.00    +0.209 C 
ATOM      9  O   UNL     1      40.760 162.949  23.378  0.00  0.00    -0.446 OA
ATOM     10  C   UNL     1      41.061 161.790  22.794  0.00  0.00    +0.352 C 
ATOM     11  O   UNL     1      41.839 161.641  21.758  0.00  0.00    -0.247 OA
ENDROOT
BRANCH   1  12
ATOM     12  N   UNL     1      39.586 160.473  24.261  0.00  0.00    -0.247 NA
ATOM     13  C   UNL     1      38.780 161.584  24.430  0.00  0.00    +0.079 C 
ATOM     14  C   UNL     1      37.344 161.270  24.909  0.00  0.00    +0.043 C 
ATOM     15  C   UNL     1      37.426 160.870  26.333  0.00  0.00    -0.023 C 
ATOM     16  C   UNL     1      38.165 159.850  26.880  0.00  0.00    -0.010 C 
ATOM     17  C   UNL     1      38.175 159.602  28.248  0.00  0.00    -0.003 C 
ATOM     18  C   UNL     1      37.424 160.395  29.083  0.00  0.00    -0.000 C 
ATOM     19  C   UNL     1      36.686 161.408  28.563  0.00  0.00    -0.000 C 
ATOM     20  C   UNL     1      36.690 161.642  27.187  0.00  0.00    -0.004 C 
ATOM     21  C   UNL     1      39.019 158.899  26.146  0.00  0.00    +0.096 C 
ATOM     22  C   UNL     1      39.194 159.202  24.679  0.00  0.00    +0.094 C 
BRANCH  21  23
ATOM     23  N   UNL     1      38.530 157.553  26.213  0.00  0.00    -0.269 NA
ATOM     24  C   UNL     1      37.846 157.018  25.122  0.00  0.00    +0.072 C 
ATOM     25  C   UNL     1      36.854 155.932  25.449  0.00  0.00    +0.017 C 
ATOM     26  C   UNL     1      37.004 155.454  26.880  0.00  0.00    +0.003 C 
ATOM     27  C   UNL     1      38.484 155.324  27.143  0.00  0.00    +0.017 C 
ATOM     28  C   UNL     1      39.052 156.719  27.215  0.00  0.00    +0.072 C 
ENDBRANCH  21  23
ENDBRANCH   1  12
BRANCH   1  29
ATOM     29  N   UNL     1      40.163 159.703  22.027  0.00  0.00    -0.204 N 
ATOM     30  C   UNL     1      39.489 160.217  20.900  0.00  0.00    +0.326 C 
ATOM     31  O   UNL     1      39.004 159.375  20.061  0.00  0.00    -0.251 OA
ATOM     32  N   UNL     1      39.295 161.571  20.588  0.00  0.00    -0.189 N 
ATOM     33  H   UNL     1      39.648 162.265  21.190  0.00  0.00    +0.175 HD
BRANCH  29  34
ATOM     34  C   UNL     1      40.339 158.263  21.961  0.00  0.00    +0.158 C 
ATOM     35  C   UNL     1      41.552 157.673  22.199  0.00  0.00    +0.113 C 
ATOM     36  C   UNL     1      41.621 156.273  22.101  0.00  0.00    +0.022 C 
ATOM     37  C   UNL     1      40.495 155.565  21.778  0.00  0.00    +0.022 C 
ATOM     38  C   UNL     1      39.297 156.207  21.549  0.00  0.00    +0.100 C 
ATOM     39  N   UNL     1      39.289 157.531  21.654  0.00  0.00    -0.227 NA
ATOM     40  C   UNL     1      42.808 155.606  22.324  0.00  0.00    +0.003 C 
ATOM     41  C   UNL     1      43.916 156.332  22.643  0.00  0.00    +0.021 C 
ATOM     42  C   UNL     1      43.807 157.704  22.726  0.00  0.00    +0.099 C 
ATOM     43  N   UNL     1      42.654 158.333  22.508  0.00  0.00    -0.241 NA
ENDBRANCH  29  34
BRANCH  32  44
ATOM     44  N   UNL     1      38.592 161.952  19.409  0.00  0.00    +0.051 NA
ATOM     45  O   UNL     1      39.251 162.401  18.422  0.00  0.00    -0.079 OA
ENDBRANCH  32  44
ENDBRANCH   1  29
TORSDOF 5
