REMARK  Name = =
REMARK  1 active torsions:
REMARK  status: ('A' for Active; 'I' for Inactive)
REMARK    1  A    between atoms: C_12  and  O_19
REMARK                            x       y       z     vdW  Elec       q    Type
REMARK                         _______ _______ _______ _____ _____    ______ ____
ROOT
ATOM      1  N   UNL     1      51.087 156.929  29.708  0.00  0.00    -0.298 NA
ATOM      2  C   UNL     1      52.434 156.448  29.349  0.00  0.00    +0.063 C 
ATOM      3  C   UNL     1      52.326 154.964  29.239  0.00  0.00    +0.044 C 
ATOM      4  C   UNL     1      51.552 154.602  28.004  0.00  0.00    +0.065 C 
ATOM      5  C   UNL     1      51.499 153.158  27.646  0.00  0.00    +0.174 C 
ATOM      6  O   UNL     1      51.616 153.115  26.212  0.00  0.00    -0.476 OA
ATOM      7  C   UNL     1      52.384 154.246  25.845  0.00  0.00    +0.168 C 
ATOM      8  C   UNL     1      52.374 155.137  26.881  0.00  0.00    +0.014 C 
ATOM      9  C   UNL     1      52.992 156.353  26.948  0.00  0.00    -0.022 C 
ATOM     10  C   UNL     1      53.711 156.718  25.822  0.00  0.00    -0.001 C 
ATOM     11  C   UNL     1      53.762 155.849  24.718  0.00  0.00    +0.039 C 
ATOM     12  C   UNL     1      53.107 154.628  24.731  0.00  0.00    +0.167 C 
ATOM     13  C   UNL     1      52.908 157.206  28.169  0.00  0.00    +0.042 C 
ATOM     14  C   UNL     1      52.476 152.284  28.345  0.00  0.00    +0.070 C 
ATOM     15  C   UNL     1      53.610 152.964  28.989  0.00  0.00    -0.027 C 
ATOM     16  C   UNL     1      53.560 154.221  29.415  0.00  0.00    -0.029 C 
ATOM     17  C   UNL     1      50.236 155.305  28.057  0.00  0.00    +0.025 C 
ATOM     18  C   UNL     1      50.086 155.910  29.454  0.00  0.00    +0.069 C 
ATOM     19  H   UNL     1      50.869 157.756  29.152  0.00  0.00    +0.123 HD
ENDROOT
BRANCH  12  20
ATOM     20  O   UNL     1      53.176 153.795  23.628  0.00  0.00    -0.503 OA
ATOM     21  H   UNL     1      53.667 154.056  22.874  0.00  0.00    +0.292 HD
ENDBRANCH  12  20
TORSDOF 1
