REMARK  Name = =
REMARK  2 active torsions:
REMARK  status: ('A' for Active; 'I' for Inactive)
REMARK    1  A    between atoms: C_1  and  C_7
REMARK    2  A    between atoms: C_7  and  O_9
REMARK                            x       y       z     vdW  Elec       q    Type
REMARK                         _______ _______ _______ _____ _____    ______ ____
ROOT
ATOM      1  C   UNL     1      49.289 155.537  28.162  0.00  0.00    +0.075 C 
ATOM      2  C   UNL     1      48.879 156.832  28.403  0.00  0.00    +0.006 C 
ATOM      3  C   UNL     1      47.574 157.176  28.581  0.00  0.00    +0.000 C 
ATOM      4  C   UNL     1      46.578 156.230  28.527  0.00  0.00    +0.000 C 
ATOM      5  C   UNL     1      46.962 154.908  28.283  0.00  0.00    +0.000 C 
ATOM      6  C   UNL     1      48.309 154.573  28.103  0.00  0.00    +0.006 C 
ENDROOT
BRANCH   1   7
ATOM      7  C   UNL     1      50.706 155.215  27.977  0.00  0.00    +0.338 C 
ATOM      8  O   UNL     1      51.064 154.028  27.757  0.00  0.00    -0.245 OA
BRANCH   7   9
ATOM      9  O   UNL     1      51.684 156.172  28.035  0.00  0.00    -0.477 OA
ATOM     10  H   UNL     1      51.455 157.066  28.197  0.00  0.00    +0.295 HD
ENDBRANCH   7   9
ENDBRANCH   1   7
TORSDOF 2
