REMARK  Name = =
REMARK  3 active torsions:
REMARK  status: ('A' for Active; 'I' for Inactive)
REMARK    1  A    between atoms: O_1  and  S_2
REMARK    2  A    between atoms: O_1  and  C_9
REMARK    3  A    between atoms: C_9  and  C_11
REMARK                            x       y       z     vdW  Elec       q    Type
REMARK                         _______ _______ _______ _____ _____    ______ ____
ROOT
ATOM      1  O   UNL     1      49.986 158.669  29.639  0.00  0.00    -0.404 OA
ENDROOT
BRANCH   1   2
ATOM      2  S   UNL     1      49.515 159.394  28.388  0.00  0.00    -0.003 S 
ATOM      3  C   UNL     1      47.870 158.955  27.577  0.00  0.00    +0.166 C 
ATOM      4  C   UNL     1      47.833 160.100  26.677  0.00  0.00    +0.242 C 
ATOM      5  O   UNL     1      47.536 159.998  25.436  0.00  0.00    -0.274 OA
ATOM      6  N   UNL     1      48.154 161.324  27.309  0.00  0.00    -0.245 N 
ATOM      7  C   UNL     1      49.176 161.203  28.244  0.00  0.00    +0.292 C 
ATOM      8  O   UNL     1      49.773 162.078  28.877  0.00  0.00    -0.261 OA
ATOM      9  H   UNL     1      50.704 158.963  27.887  0.00  0.00    +0.132 HD
ATOM     10  H   UNL     1      47.700 162.174  27.108  0.00  0.00    +0.158 HD
ENDBRANCH   1   2
BRANCH   1  11
ATOM     11  C   UNL     1      49.402 158.658  30.895  0.00  0.00    +0.351 C 
ATOM     12  O   UNL     1      48.900 157.561  31.265  0.00  0.00    -0.244 OA
BRANCH  11  13
ATOM     13  C   UNL     1      49.352 159.830  31.766  0.00  0.00    +0.077 C 
ATOM     14  C   UNL     1      48.194 160.160  32.438  0.00  0.00    +0.006 C 
ATOM     15  C   UNL     1      48.138 161.268  33.265  0.00  0.00    +0.000 C 
ATOM     16  C   UNL     1      49.259 162.056  33.419  0.00  0.00    +0.000 C 
ATOM     17  C   UNL     1      50.392 161.712  32.746  0.00  0.00    +0.000 C 
ATOM     18  C   UNL     1      50.458 160.617  31.925  0.00  0.00    +0.006 C 
ENDBRANCH  11  13
ENDBRANCH   1  11
TORSDOF 3
