REMARK  Name = =
REMARK  4 active torsions:
REMARK  status: ('A' for Active; 'I' for Inactive)
REMARK    1  A    between atoms: S_1  and  O_17
REMARK    2  A    between atoms: C_2  and  C_8
REMARK    3  A    between atoms: O_17  and  C_18
REMARK    4  A    between atoms: C_18  and  C_20
REMARK                            x       y       z     vdW  Elec       q    Type
REMARK                         _______ _______ _______ _____ _____    ______ ____
ROOT
ATOM      1  S   UNL     1      50.872 161.049  31.968  0.00  0.00    -0.004 S 
ATOM      2  C   UNL     1      49.599 161.877  30.972  0.00  0.00    +0.146 C 
ATOM      3  C   UNL     1      48.676 162.439  31.956  0.00  0.00    +0.240 C 
ATOM      4  O   UNL     1      47.778 163.273  31.607  0.00  0.00    -0.274 OA
ATOM      5  N   UNL     1      48.871 161.991  33.255  0.00  0.00    -0.245 N 
ATOM      6  C   UNL     1      49.565 160.807  33.422  0.00  0.00    +0.292 C 
ATOM      7  O   UNL     1      49.586 159.830  34.103  0.00  0.00    -0.261 OA
ATOM      8  H   UNL     1      51.556 160.029  31.385  0.00  0.00    +0.132 HD
ATOM      9  H   UNL     1      48.529 162.497  34.027  0.00  0.00    +0.158 HD
ENDROOT
BRANCH   2  10
ATOM     10  C   UNL     1      48.940 160.835  30.064  0.00  0.00    +0.020 C 
ATOM     11  C   UNL     1      49.513 159.525  30.406  0.00  0.00    +0.001 C 
ATOM     12  C   UNL     1      48.612 158.478  30.903  0.00  0.00    +0.000 C 
ATOM     13  C   UNL     1      49.273 157.138  30.677  0.00  0.00    +0.000 C 
ATOM     14  C   UNL     1      50.249 157.378  29.554  0.00  0.00    +0.000 C 
ATOM     15  C   UNL     1      50.231 158.857  29.253  0.00  0.00    +0.000 C 
ATOM     16  C   UNL     1      47.204 158.520  30.419  0.00  0.00    +0.000 C 
ATOM     17  C   UNL     1      46.683 159.904  30.689  0.00  0.00    +0.000 C 
ATOM     18  C   UNL     1      47.481 160.977  30.003  0.00  0.00    +0.001 C 
ENDBRANCH   2  10
BRANCH   1  19
ATOM     19  O   UNL     1      52.170 161.986  32.505  0.00  0.00    -0.404 OA
BRANCH  19  20
ATOM     20  C   UNL     1      52.740 163.004  31.755  0.00  0.00    +0.351 C 
ATOM     21  O   UNL     1      52.128 164.101  31.746  0.00  0.00    -0.244 OA
BRANCH  20  22
ATOM     22  C   UNL     1      53.973 162.847  31.006  0.00  0.00    +0.077 C 
ATOM     23  C   UNL     1      54.083 163.470  29.785  0.00  0.00    +0.006 C 
ATOM     24  C   UNL     1      55.235 163.367  29.010  0.00  0.00    +0.000 C 
ATOM     25  C   UNL     1      56.302 162.630  29.455  0.00  0.00    +0.000 C 
ATOM     26  C   UNL     1      56.212 162.003  30.669  0.00  0.00    +0.000 C 
ATOM     27  C   UNL     1      55.053 162.113  31.438  0.00  0.00    +0.006 C 
ENDBRANCH  20  22
ENDBRANCH  19  20
ENDBRANCH   1  19
TORSDOF 4
