REMARK  Name = =
REMARK  6 active torsions:
REMARK  status: ('A' for Active; 'I' for Inactive)
REMARK    1  A    between atoms: S_1  and  O_20
REMARK    2  A    between atoms: C_2  and  C_8
REMARK    3  A    between atoms: C_8  and  C_17
REMARK    4  A    between atoms: N_18  and  N_19
REMARK    5  A    between atoms: O_20  and  C_21
REMARK    6  A    between atoms: C_21  and  C_23
REMARK                            x       y       z     vdW  Elec       q    Type
REMARK                         _______ _______ _______ _____ _____    ______ ____
ROOT
ATOM      1  S   UNL     1      51.242 159.925  31.854  0.00  0.00    -0.004 S 
ATOM      2  C   UNL     1      52.319 160.821  30.544  0.00  0.00    +0.151 C 
ATOM      3  C   UNL     1      51.263 160.822  29.519  0.00  0.00    +0.241 C 
ATOM      4  O   UNL     1      50.844 161.844  28.896  0.00  0.00    -0.274 OA
ATOM      5  N   UNL     1      50.756 159.543  29.295  0.00  0.00    -0.245 N 
ATOM      6  C   UNL     1      50.589 158.773  30.430  0.00  0.00    +0.292 C 
ATOM      7  O   UNL     1      50.173 157.658  30.723  0.00  0.00    -0.261 OA
ATOM      8  H   UNL     1      51.786 159.492  33.023  0.00  0.00    +0.132 HD
ATOM      9  H   UNL     1      50.533 159.213  28.395  0.00  0.00    +0.158 HD
ENDROOT
BRANCH   2  10
ATOM     10  C   UNL     1      52.713 162.109  31.074  0.00  0.00    +0.057 C 
ATOM     11  C   UNL     1      53.877 162.129  31.961  0.00  0.00    +0.007 C 
ATOM     12  C   UNL     1      55.140 162.743  31.415  0.00  0.00    +0.000 C 
ATOM     13  C   UNL     1      56.287 162.198  32.204  0.00  0.00    +0.000 C 
ATOM     14  C   UNL     1      55.710 161.323  33.267  0.00  0.00    +0.000 C 
ATOM     15  C   UNL     1      54.296 160.962  32.738  0.00  0.00    +0.000 C 
ATOM     16  C   UNL     1      55.367 162.484  29.947  0.00  0.00    +0.000 C 
ATOM     17  C   UNL     1      54.141 162.767  29.122  0.00  0.00    +0.000 C 
ATOM     18  C   UNL     1      52.972 163.173  29.993  0.00  0.00    +0.007 C 
BRANCH  10  19
ATOM     19  C   UNL     1      51.571 162.740  31.860  0.00  0.00    +0.091 C 
ATOM     20  N   UNL     1      51.697 163.796  32.555  0.00  0.00    -0.192 NA
BRANCH  20  21
ATOM     21  N   UNL     1      52.847 164.541  32.726  0.00  0.00    -0.282 N 
ATOM     22  H   UNL     1      52.832 165.348  33.290  0.00  0.00    +0.164 HD
ATOM     23  H   UNL     1      53.682 164.266  32.284  0.00  0.00    +0.164 HD
ENDBRANCH  20  21
ENDBRANCH  10  19
ENDBRANCH   2  10
BRANCH   1  24
ATOM     24  O   UNL     1      49.823 160.957  32.205  0.00  0.00    -0.404 OA
BRANCH  24  25
ATOM     25  C   UNL     1      49.270 160.701  33.422  0.00  0.00    +0.351 C 
ATOM     26  O   UNL     1      49.440 159.571  33.945  0.00  0.00    -0.244 OA
BRANCH  25  27
ATOM     27  C   UNL     1      48.471 161.715  34.154  0.00  0.00    +0.077 C 
ATOM     28  C   UNL     1      47.937 162.817  33.528  0.00  0.00    +0.006 C 
ATOM     29  C   UNL     1      47.191 163.764  34.213  0.00  0.00    +0.000 C 
ATOM     30  C   UNL     1      46.969 163.608  35.567  0.00  0.00    +0.000 C 
ATOM     31  C   UNL     1      47.502 162.505  36.200  0.00  0.00    +0.000 C 
ATOM     32  C   UNL     1      48.253 161.556  35.496  0.00  0.00    +0.006 C 
ENDBRANCH  25  27
ENDBRANCH  24  25
ENDBRANCH   1  24
TORSDOF 6
