REMARK  Name = =
REMARK  7 active torsions:
REMARK  status: ('A' for Active; 'I' for Inactive)
REMARK    1  A    between atoms: C_1  and  C_11
REMARK    2  A    between atoms: C_1  and  C_26
REMARK    3  A    between atoms: S_10  and  O_17
REMARK    4  A    between atoms: O_17  and  C_18
REMARK    5  A    between atoms: C_18  and  C_20
REMARK    6  A    between atoms: C_26  and  S_28
REMARK    7  A    between atoms: N_27  and  N_33
REMARK                            x       y       z     vdW  Elec       q    Type
REMARK                         _______ _______ _______ _____ _____    ______ ____
ROOT
ATOM      1  C   UNL     1      51.441 157.312  28.129  0.00  0.00    +0.060 C 
ATOM      2  C   UNL     1      52.699 158.119  28.458  0.00  0.00    +0.007 C 
ATOM      3  C   UNL     1      53.856 157.311  27.935  0.00  0.00    +0.000 C 
ATOM      4  C   UNL     1      55.026 157.941  28.588  0.00  0.00    +0.000 C 
ATOM      5  C   UNL     1      54.510 158.532  29.882  0.00  0.00    +0.000 C 
ATOM      6  C   UNL     1      52.994 158.285  29.889  0.00  0.00    +0.000 C 
ATOM      7  C   UNL     1      53.817 157.372  26.448  0.00  0.00    +0.000 C 
ATOM      8  C   UNL     1      52.506 156.936  25.871  0.00  0.00    +0.000 C 
ATOM      9  C   UNL     1      51.302 157.425  26.625  0.00  0.00    +0.007 C 
ENDROOT
BRANCH   1  11
ATOM     10  S   UNL     1      50.483 158.061  30.515  0.00  0.00    -0.004 S 
ATOM     11  C   UNL     1      50.243 157.992  28.757  0.00  0.00    +0.151 C 
ATOM     12  C   UNL     1      50.139 159.435  28.495  0.00  0.00    +0.241 C 
ATOM     13  O   UNL     1      49.328 159.956  27.680  0.00  0.00    -0.274 OA
ATOM     14  N   UNL     1      51.052 160.205  29.260  0.00  0.00    -0.245 N 
ATOM     15  C   UNL     1      51.165 159.778  30.585  0.00  0.00    +0.292 C 
ATOM     16  O   UNL     1      51.588 160.295  31.640  0.00  0.00    -0.261 OA
ATOM     17  H   UNL     1      51.216 157.020  30.992  0.00  0.00    +0.132 HD
ATOM     18  H   UNL     1      51.557 160.966  28.893  0.00  0.00    +0.158 HD
BRANCH  10  19
ATOM     19  O   UNL     1      49.056 157.956  31.513  0.00  0.00    -0.404 OA
BRANCH  19  20
ATOM     20  C   UNL     1      48.173 159.025  31.537  0.00  0.00    +0.351 C 
ATOM     21  O   UNL     1      47.121 158.887  30.866  0.00  0.00    -0.244 OA
BRANCH  20  22
ATOM     22  C   UNL     1      48.430 160.244  32.288  0.00  0.00    +0.077 C 
ATOM     23  C   UNL     1      48.068 161.442  31.720  0.00  0.00    +0.006 C 
ATOM     24  C   UNL     1      48.286 162.631  32.385  0.00  0.00    +0.000 C 
ATOM     25  C   UNL     1      48.877 162.674  33.648  0.00  0.00    +0.000 C 
ATOM     26  C   UNL     1      49.236 161.463  34.203  0.00  0.00    +0.000 C 
ATOM     27  C   UNL     1      49.014 160.280  33.532  0.00  0.00    +0.006 C 
ENDBRANCH  20  22
ENDBRANCH  19  20
ENDBRANCH  10  19
ENDBRANCH   1  11
BRANCH   1  28
ATOM     28  C   UNL     1      51.701 155.945  28.561  0.00  0.00    +0.084 C 
ATOM     29  N   UNL     1      51.700 155.674  29.794  0.00  0.00    -0.189 NA
BRANCH  28  30
ATOM     30  S   UNL     1      52.018 154.599  27.367  0.00  0.00    -0.177 S 
ATOM     31  C   UNL     1      51.300 152.989  27.773  0.00  0.00    +0.062 C 
ATOM     32  C   UNL     1      52.583 152.170  27.943  0.00  0.00    +0.100 C 
ATOM     33  N   UNL     1      53.601 153.060  28.435  0.00  0.00    -0.207 NA
ATOM     34  C   UNL     1      53.759 154.006  27.356  0.00  0.00    +0.131 C 
ATOM     35  H   UNL     1      51.536 155.208  26.250  0.00  0.00    +0.091 HD
ENDBRANCH  28  30
BRANCH  29  36
ATOM     36  N   UNL     1      51.897 154.548  30.510  0.00  0.00    -0.282 N 
ATOM     37  H   UNL     1      51.847 154.575  31.493  0.00  0.00    +0.164 HD
ATOM     38  H   UNL     1      52.091 153.700  30.050  0.00  0.00    +0.164 HD
ENDBRANCH  29  36
ENDBRANCH   1  28
TORSDOF 7
