REMARK  Name = =
REMARK  16 active torsions:
REMARK  status: ('A' for Active; 'I' for Inactive)
REMARK    1  A    between atoms: S_1  and  P_2
REMARK    2  A    between atoms: S_1  and  O_5
REMARK    3  A    between atoms: P_2  and  O_4
REMARK    4  A    between atoms: P_2  and  O_17
REMARK    5  A    between atoms: O_5  and  P_7
REMARK    6  A    between atoms: S_6  and  P_7
REMARK    7  A    between atoms: S_6  and  S_9
REMARK    8  A    between atoms: P_7  and  O_12
REMARK    9  A    between atoms: S_9  and  C_10
REMARK   10  A    between atoms: O_12  and  P_13
REMARK   11  A    between atoms: P_13  and  O_15
REMARK   12  A    between atoms: P_13  and  O_16
REMARK   13  A    between atoms: O_17  and  O_18
REMARK   14  A    between atoms: O_18  and  C_19
REMARK   15  A    between atoms: C_19  and  C_21
REMARK   16  A    between atoms: C_22  and  C_27
REMARK                            x       y       z     vdW  Elec       q    Type
REMARK                         _______ _______ _______ _____ _____    ______ ____
ROOT
ATOM      1  S   UNL     1      52.884 155.679  28.885  0.00  0.00    +0.028 S 
ATOM      2  H   UNL     1      53.063 154.722  29.835  0.00  0.00    +0.133 HD
ENDROOT
BRANCH   1   3
ATOM      3  P   UNL     1      51.064 156.274  28.863  0.00  0.00    +0.437 P 
ATOM      4  O   UNL     1      50.321 155.034  28.333  0.00  0.00    -0.242 OA
BRANCH   3   5
ATOM      5  O   UNL     1      50.824 157.509  27.766  0.00  0.00    -0.314 OA
ATOM      6  H   UNL     1      51.197 157.256  26.907  0.00  0.00    +0.221 HD
ENDBRANCH   3   5
BRANCH   3   7
ATOM      7  O   UNL     1      50.484 156.564  30.355  0.00  0.00    -0.085 OA
BRANCH   7   8
ATOM      8  O   UNL     1      49.933 157.693  30.689  0.00  0.00    -0.283 OA
BRANCH   8   9
ATOM      9  C   UNL     1      50.410 158.927  30.401  0.00  0.00    +0.375 C 
ATOM     10  O   UNL     1      51.429 159.095  29.709  0.00  0.00    -0.242 OA
BRANCH   9  11
ATOM     11  C   UNL     1      49.686 160.084  30.936  0.00  0.00    +0.075 C 
ATOM     12  C   UNL     1      50.334 161.179  31.470  0.00  0.00    -0.016 C 
ATOM     13  C   UNL     1      49.571 162.200  31.917  0.00  0.00    -0.004 C 
ATOM     14  C   UNL     1      48.192 162.145  31.863  0.00  0.00    -0.000 C 
ATOM     15  C   UNL     1      47.547 161.054  31.336  0.00  0.00    +0.000 C 
ATOM     16  C   UNL     1      48.338 160.023  30.879  0.00  0.00    +0.006 C 
BRANCH  12  17
ATOM     17  C   UNL     1      51.798 161.108  31.698  0.00  0.00    +0.023 C 
ATOM     18  C   UNL     1      52.907 161.363  30.824  0.00  0.00    +0.005 C 
ATOM     19  C   UNL     1      52.450 162.523  31.593  0.00  0.00    +0.005 C 
ENDBRANCH  12  17
ENDBRANCH   9  11
ENDBRANCH   8   9
ENDBRANCH   7   8
ENDBRANCH   3   7
ENDBRANCH   1   3
BRANCH   1  20
ATOM     20  O   UNL     1      53.159 155.029  27.309  0.00  0.00    -0.232 OA
BRANCH  20  21
ATOM     21  P   UNL     1      53.261 153.353  27.327  0.00  0.00    +0.407 P 
ATOM     22  O   UNL     1      52.586 152.843  28.587  0.00  0.00    -0.245 OA
BRANCH  21  23
ATOM     23  S   UNL     1      52.079 152.568  25.983  0.00  0.00    -0.053 S 
ATOM     24  H   UNL     1      50.861 153.171  26.014  0.00  0.00    +0.114 HD
BRANCH  23  25
ATOM     25  S   UNL     1      51.902 150.541  26.488  0.00  0.00    -0.064 S 
BRANCH  25  26
ATOM     26  C   UNL     1      51.338 150.177  27.980  0.00  0.00    +0.177 C 
ATOM     27  N   UNL     1      50.888 149.864  29.167  0.00  0.00    -0.118 NA
ENDBRANCH  25  26
ENDBRANCH  23  25
ENDBRANCH  21  23
BRANCH  21  28
ATOM     28  O   UNL     1      54.772 152.733  27.197  0.00  0.00    -0.200 OA
BRANCH  28  29
ATOM     29  P   UNL     1      55.407 152.782  25.635  0.00  0.00    +0.480 P 
ATOM     30  O   UNL     1      54.898 151.680  24.759  0.00  0.00    -0.227 OA
BRANCH  29  31
ATOM     31  O   UNL     1      55.158 154.259  24.881  0.00  0.00    -0.302 OA
ATOM     32  H   UNL     1      55.488 154.972  25.450  0.00  0.00    +0.222 HD
ENDBRANCH  29  31
BRANCH  29  33
ATOM     33  O   UNL     1      57.093 152.564  25.790  0.00  0.00    -0.302 OA
ATOM     34  H   UNL     1      57.271 151.715  26.224  0.00  0.00    +0.222 HD
ENDBRANCH  29  33
ENDBRANCH  28  29
ENDBRANCH  21  28
ENDBRANCH  20  21
ENDBRANCH   1  20
TORSDOF 16
