REMARK  Name = =
REMARK  9 active torsions:
REMARK  status: ('A' for Active; 'I' for Inactive)
REMARK    1  A    between atoms: C_1  and  C_11
REMARK    2  A    between atoms: C_1  and  C_26
REMARK    3  A    between atoms: S_10  and  O_17
REMARK    4  A    between atoms: O_17  and  C_18
REMARK    5  A    between atoms: C_18  and  C_20
REMARK    6  A    between atoms: C_26  and  S_28
REMARK    7  A    between atoms: N_27  and  N_40
REMARK    8  A    between atoms: C_29  and  N_33
REMARK    9  A    between atoms: N_33  and  N_36
REMARK                            x       y       z     vdW  Elec       q    Type
REMARK                         _______ _______ _______ _____ _____    ______ ____
ROOT
ATOM      1  C   UNL     1      51.874 159.935  30.239  0.00  0.00    +0.060 C 
ATOM      2  C   UNL     1      50.894 159.914  31.437  0.00  0.00    +0.007 C 
ATOM      3  C   UNL     1      49.480 159.838  30.979  0.00  0.00    +0.000 C 
ATOM      4  C   UNL     1      48.693 160.535  32.071  0.00  0.00    +0.000 C 
ATOM      5  C   UNL     1      49.697 161.125  33.032  0.00  0.00    +0.000 C 
ATOM      6  C   UNL     1      51.027 161.164  32.266  0.00  0.00    +0.000 C 
ATOM      7  C   UNL     1      49.203 160.369  29.617  0.00  0.00    +0.000 C 
ATOM      8  C   UNL     1      50.148 161.408  29.117  0.00  0.00    +0.000 C 
ATOM      9  C   UNL     1      51.583 161.119  29.369  0.00  0.00    +0.007 C 
ENDROOT
BRANCH   1  11
ATOM     10  S   UNL     1      53.666 161.837  31.005  0.00  0.00    -0.004 S 
ATOM     11  C   UNL     1      53.228 160.139  30.827  0.00  0.00    +0.151 C 
ATOM     12  C   UNL     1      54.357 159.589  30.051  0.00  0.00    +0.241 C 
ATOM     13  O   UNL     1      54.490 158.315  29.829  0.00  0.00    -0.274 OA
ATOM     14  N   UNL     1      55.281 160.520  29.567  0.00  0.00    -0.245 N 
ATOM     15  C   UNL     1      54.938 161.869  29.648  0.00  0.00    +0.292 C 
ATOM     16  O   UNL     1      55.268 162.914  29.080  0.00  0.00    -0.261 OA
ATOM     17  H   UNL     1      52.588 162.666  30.988  0.00  0.00    +0.132 HD
ATOM     18  H   UNL     1      56.141 160.234  29.183  0.00  0.00    +0.158 HD
BRANCH  10  19
ATOM     19  O   UNL     1      54.505 162.271  32.495  0.00  0.00    -0.404 OA
BRANCH  19  20
ATOM     20  C   UNL     1      55.700 161.655  32.786  0.00  0.00    +0.351 C 
ATOM     21  O   UNL     1      55.898 160.459  32.476  0.00  0.00    -0.244 OA
BRANCH  20  22
ATOM     22  C   UNL     1      56.733 162.449  33.472  0.00  0.00    +0.077 C 
ATOM     23  C   UNL     1      57.700 161.838  34.255  0.00  0.00    +0.006 C 
ATOM     24  C   UNL     1      58.675 162.586  34.905  0.00  0.00    +0.000 C 
ATOM     25  C   UNL     1      58.693 163.954  34.778  0.00  0.00    +0.000 C 
ATOM     26  C   UNL     1      57.737 164.598  33.998  0.00  0.00    +0.000 C 
ATOM     27  C   UNL     1      56.776 163.821  33.362  0.00  0.00    +0.006 C 
ENDBRANCH  20  22
ENDBRANCH  19  20
ENDBRANCH  10  19
ENDBRANCH   1  11
BRANCH   1  28
ATOM     28  C   UNL     1      51.679 158.617  29.634  0.00  0.00    +0.085 C 
ATOM     29  N   UNL     1      51.088 157.687  30.211  0.00  0.00    -0.189 NA
BRANCH  28  30
ATOM     30  S   UNL     1      52.292 158.193  28.036  0.00  0.00    -0.159 S 
ATOM     31  C   UNL     1      52.078 156.649  27.234  0.00  0.00    +0.147 C 
ATOM     32  C   UNL     1      53.129 156.895  26.116  0.00  0.00    +0.121 C 
ATOM     33  N   UNL     1      54.311 157.327  26.729  0.00  0.00    -0.205 NA
ATOM     34  C   UNL     1      54.124 158.221  27.801  0.00  0.00    +0.132 C 
ATOM     35  H   UNL     1      51.481 159.164  27.537  0.00  0.00    +0.092 HD
BRANCH  31  36
ATOM     36  N   UNL     1      52.488 155.510  27.961  0.00  0.00    -0.191 N 
ATOM     37  C   UNL     1      53.175 154.448  27.325  0.00  0.00    +0.321 C 
ATOM     38  O   UNL     1      53.526 153.450  27.973  0.00  0.00    -0.263 OA
BRANCH  36  39
ATOM     39  N   UNL     1      52.245 155.388  29.321  0.00  0.00    -0.214 N 
ATOM     40  C   UNL     1      51.184 154.575  29.846  0.00  0.00    +0.314 C 
ATOM     41  O   UNL     1      50.481 153.967  29.001  0.00  0.00    -0.252 OA
ATOM     42  N   UNL     1      50.933 154.453  31.235  0.00  0.00    -0.312 N 
ATOM     43  H   UNL     1      52.822 155.878  29.951  0.00  0.00    +0.175 HD
ATOM     44  H   UNL     1      51.496 154.938  31.881  0.00  0.00    +0.147 HD
ATOM     45  H   UNL     1      50.196 153.883  31.554  0.00  0.00    +0.147 HD
ENDBRANCH  36  39
ENDBRANCH  31  36
ENDBRANCH  28  30
BRANCH  29  46
ATOM     46  N   UNL     1      50.480 157.432  31.363  0.00  0.00    -0.282 N 
ATOM     47  H   UNL     1      50.089 156.543  31.527  0.00  0.00    +0.164 HD
ATOM     48  H   UNL     1      50.420 158.131  32.053  0.00  0.00    +0.164 HD
ENDBRANCH  29  46
ENDBRANCH   1  28
TORSDOF 9
