MODEL 1
REMARK VINA RESULT:   -10.696      0.000      0.000
REMARK INTER + INTRA:         -19.685
REMARK INTER:                 -18.200
REMARK INTRA:                  -1.484
REMARK UNBOUND:                -1.484
REMARK  Name = =
REMARK  12 active torsions:
REMARK  status: ('A' for Active; 'I' for Inactive)
REMARK    1  A    between atoms: P_1  and  O_3
REMARK    2  A    between atoms: P_1  and  O_12
REMARK    3  A    between atoms: P_1  and  O_31
REMARK    4  A    between atoms: O_3  and  C_4
REMARK    5  A    between atoms: C_4  and  O_6
REMARK    6  A    between atoms: O_6  and  C_7
REMARK    7  A    between atoms: C_8  and  C_9
REMARK    8  A    between atoms: O_12  and  C_13
REMARK    9  A    between atoms: C_16  and  C_19
REMARK   10  A    between atoms: C_22  and  N_25
REMARK   11  A    between atoms: O_31  and  C_32
REMARK   12  A    between atoms: C_36  and  C_38
REMARK                            x       y       z     vdW  Elec       q    Type
REMARK                         _______ _______ _______ _____ _____    ______ ____
ROOT
ATOM      1  P   UNL     1      -4.278  -3.304  30.790  0.00  0.00    +0.598 P 
ATOM      2  O   UNL     1      -4.552  -4.116  29.547  0.00  0.00    -0.204 OA
ENDROOT
BRANCH   1   3
ATOM      3  O   UNL     1      -5.822  -2.742  31.344  0.00  0.00    -0.329 OA
BRANCH   3   4
ATOM      4  C   UNL     1      -5.922  -2.108  32.577  0.00  0.00    +0.524 C 
ATOM      5  O   UNL     1      -5.952  -2.790  33.650  0.00  0.00    -0.202 OA
BRANCH   4   6
ATOM      6  O   UNL     1      -5.995  -0.733  32.727  0.00  0.00    -0.390 OA
BRANCH   6   7
ATOM      7  C   UNL     1      -6.545   0.106  31.777  0.00  0.00    +0.191 C 
ATOM      8  C   UNL     1      -5.909   1.158  31.324  0.00  0.00    +0.098 C 
BRANCH   8   9
ATOM      9  C   UNL     1      -6.517   2.020  30.323  0.00  0.00    +0.246 C 
ATOM     10  O   UNL     1      -6.056   1.999  29.138  0.00  0.00    -0.270 OA
ATOM     11  N   UNL     1      -7.603   2.861  30.665  0.00  0.00    -0.325 N 
ATOM     12  H   UNL     1      -7.950   2.868  31.586  0.00  0.00    +0.145 HD
ATOM     13  H   UNL     1      -8.010   3.441  29.981  0.00  0.00    +0.145 HD
ENDBRANCH   8   9
ENDBRANCH   6   7
ENDBRANCH   4   6
ENDBRANCH   3   4
ENDBRANCH   1   3
BRANCH   1  14
ATOM     14  O   UNL     1      -3.371  -1.940  30.359  0.00  0.00    -0.398 OA
BRANCH  14  15
ATOM     15  C   UNL     1      -2.279  -2.066  29.505  0.00  0.00    +0.123 C 
ATOM     16  C   UNL     1      -2.153  -1.302  28.460  0.00  0.00    +0.007 C 
ATOM     17  C   UNL     1      -1.002  -1.425  27.546  0.00  0.00    +0.033 C 
ATOM     18  C   UNL     1       0.212  -1.768  28.411  0.00  0.00    +0.027 C 
ATOM     19  C   UNL     1      -0.061  -3.117  28.993  0.00  0.00    +0.013 C 
ATOM     20  C   UNL     1      -1.285  -3.094  29.836  0.00  0.00    +0.064 C 
BRANCH  18  21
ATOM     21  C   UNL     1       1.458  -1.737  27.601  0.00  0.00    -0.022 C 
ATOM     22  C   UNL     1       2.644  -2.258  28.043  0.00  0.00    -0.003 C 
ATOM     23  C   UNL     1       3.785  -2.198  27.233  0.00  0.00    +0.014 C 
ATOM     24  C   UNL     1       3.781  -1.634  25.995  0.00  0.00    +0.048 C 
ATOM     25  C   UNL     1       2.570  -1.104  25.550  0.00  0.00    +0.014 C 
ATOM     26  C   UNL     1       1.461  -1.165  26.346  0.00  0.00    -0.003 C 
BRANCH  24  27
ATOM     27  N   UNL     1       4.916  -1.557  25.149  0.00  0.00    -0.305 N 
ATOM     28  C   UNL     1       6.252  -1.673  25.699  0.00  0.00    +0.110 C 
ATOM     29  C   UNL     1       7.156  -2.046  24.536  0.00  0.00    +0.110 C 
ATOM     30  N   UNL     1       6.558  -3.035  23.671  0.00  0.00    -0.214 NA
ATOM     31  C   UNL     1       5.316  -2.644  23.082  0.00  0.00    +0.110 C 
ATOM     32  C   UNL     1       4.827  -1.361  23.722  0.00  0.00    +0.110 C 
ENDBRANCH  24  27
ENDBRANCH  18  21
ENDBRANCH  14  15
ENDBRANCH   1  14
BRANCH   1  33
ATOM     33  O   UNL     1      -3.614  -4.204  32.024  0.00  0.00    -0.228 OA
BRANCH  33  34
ATOM     34  C   UNL     1      -4.044  -5.509  32.087  0.00  0.00    +0.247 C 
ATOM     35  C   UNL     1      -4.133  -5.905  33.536  0.00  0.00    +0.062 C 
ATOM     36  C   UNL     1      -4.242  -7.395  33.743  0.00  0.00    +0.008 C 
ATOM     37  C   UNL     1      -3.299  -8.125  32.803  0.00  0.00    +0.030 C 
ATOM     38  C   UNL     1      -2.375  -7.082  32.219  0.00  0.00    +0.125 C 
ATOM     39  O   UNL     1      -3.146  -6.291  31.370  0.00  0.00    -0.332 OA
BRANCH  38  40
ATOM     40  C   UNL     1      -1.249  -7.692  31.428  0.00  0.00    +0.085 C 
ATOM     41  C   UNL     1      -0.336  -6.686  30.815  0.00  0.00    +0.010 C 
ATOM     42  C   UNL     1      -0.402  -6.656  29.303  0.00  0.00    +0.001 C 
ATOM     43  C   UNL     1      -0.085  -8.000  28.700  0.00  0.00    +0.008 C 
ATOM     44  C   UNL     1      -0.823  -9.120  29.358  0.00  0.00    +0.065 C 
ATOM     45  C   UNL     1      -1.777  -8.577  30.352  0.00  0.00    +0.153 C 
ATOM     46  O   UNL     1      -2.947  -8.880  30.238  0.00  0.00    -0.296 OA
ENDBRANCH  38  40
ENDBRANCH  33  34
ENDBRANCH   1  33
TORSDOF 12
ENDMDL
