MODEL 1
REMARK VINA RESULT:   -11.596      0.000      0.000
REMARK INTER + INTRA:         -13.523
REMARK INTER:                 -12.951
REMARK INTRA:                  -0.572
REMARK UNBOUND:                -0.572
REMARK  Name = =
REMARK  2 active torsions:
REMARK  status: ('A' for Active; 'I' for Inactive)
REMARK    1  A    between atoms: C_1  and  C_11
REMARK    2  A    between atoms: C_7  and  N_29
REMARK                            x       y       z     vdW  Elec       q    Type
REMARK                         _______ _______ _______ _____ _____    ______ ____
ROOT
ATOM      1  C   UNL     1      57.095 161.200  41.888  0.00  0.00    +0.019 C 
ATOM      2  C   UNL     1      57.256 160.307  42.926  0.00  0.00    +0.101 C 
ATOM      3  N   UNL     1      58.385 159.545  43.033  0.00  0.00    -0.225 NA
ATOM      4  C   UNL     1      59.380 159.625  42.149  0.00  0.00    +0.163 C 
ATOM      5  C   UNL     1      59.263 160.505  41.093  0.00  0.00    +0.050 C 
ATOM      6  C   UNL     1      58.127 161.281  40.974  0.00  0.00    +0.006 C 
ATOM      7  C   UNL     1      60.261 160.634  40.141  0.00  0.00    +0.066 C 
ATOM      8  C   UNL     1      61.381 159.842  40.294  0.00  0.00    +0.036 C 
ATOM      9  C   UNL     1      61.510 158.959  41.345  0.00  0.00    +0.102 C 
ATOM     10  N   UNL     1      60.503 158.882  42.235  0.00  0.00    -0.225 NA
ENDROOT
BRANCH   1  11
ATOM     11  C   UNL     1      55.913 162.036  41.729  0.00  0.00    +0.004 A 
ATOM     12  C   UNL     1      54.634 161.539  41.890  0.00  0.00    +0.018 A 
ATOM     13  C   UNL     1      53.514 162.335  41.738  0.00  0.00    +0.081 A 
ATOM     14  N   UNL     1      53.674 163.631  41.424  0.00  0.00    -0.245 NA
ATOM     15  C   UNL     1      54.894 164.183  41.251  0.00  0.00    +0.081 A 
ATOM     16  C   UNL     1      56.025 163.371  41.406  0.00  0.00    +0.018 A 
ATOM     17  C   UNL     1      57.246 163.982  41.221  0.00  0.00    +0.001 C 
ATOM     18  C   UNL     1      57.365 165.320  40.899  0.00  0.00    +0.000 C 
ATOM     19  C   UNL     1      56.250 166.086  40.754  0.00  0.00    +0.002 C 
ATOM     20  C   UNL     1      55.015 165.516  40.930  0.00  0.00    +0.019 C 
ATOM     21  C   UNL     1      52.233 161.851  41.895  0.00  0.00    +0.018 C 
ATOM     22  C   UNL     1      52.080 160.521  42.218  0.00  0.00    +0.001 C 
ATOM     23  C   UNL     1      53.185 159.706  42.376  0.00  0.00    +0.000 C 
ATOM     24  C   UNL     1      54.464 160.217  42.211  0.00  0.00    +0.001 C 
ATOM     25  C   UNL     1      50.809 160.007  42.381  0.00  0.00    +0.000 C 
ATOM     26  C   UNL     1      49.690 160.810  42.226  0.00  0.00    +0.000 C 
ATOM     27  C   UNL     1      49.832 162.133  41.906  0.00  0.00    +0.000 C 
ATOM     28  C   UNL     1      51.105 162.634  41.745  0.00  0.00    +0.001 C 
ENDBRANCH   1  11
BRANCH   7  29
ATOM     29  N   UNL     1      60.072 161.544  39.095  0.00  0.00    -0.201 N 
ATOM     30  C   UNL     1      59.411 161.185  37.892  0.00  0.00    +0.259 C 
ATOM     31  O   UNL     1      58.959 160.019  37.710  0.00  0.00    -0.269 OA
ATOM     32  C   UNL     1      59.242 162.176  36.834  0.00  0.00    +0.054 C 
ATOM     33  C   UNL     1      59.716 163.489  36.962  0.00  0.00    +0.009 C 
ATOM     34  C   UNL     1      59.542 164.397  35.945  0.00  0.00    +0.000 C 
ATOM     35  C   UNL     1      60.008 165.680  36.078  0.00  0.00    +0.000 C 
ATOM     36  C   UNL     1      60.656 166.053  37.240  0.00  0.00    +0.000 C 
ATOM     37  C   UNL     1      60.833 165.148  38.259  0.00  0.00    +0.005 C 
ATOM     38  C   UNL     1      60.367 163.859  38.133  0.00  0.00    +0.054 C 
ATOM     39  C   UNL     1      60.547 162.872  39.214  0.00  0.00    +0.259 C 
ATOM     40  O   UNL     1      61.129 163.235  40.243  0.00  0.00    -0.269 OA
ATOM     41  C   UNL     1      58.899 164.019  34.794  0.00  0.00    +0.000 C 
ATOM     42  C   UNL     1      58.428 162.720  34.664  0.00  0.00    +0.000 C 
ATOM     43  C   UNL     1      58.595 161.804  35.668  0.00  0.00    +0.005 C 
ENDBRANCH   7  29
TORSDOF 2
ENDMDL
