REMARK  Name = =
REMARK  2 active torsions:
REMARK  status: ('A' for Active; 'I' for Inactive)
REMARK    1  A    between atoms: C_1  and  C_11
REMARK    2  A    between atoms: C_7  and  N_29
REMARK                            x       y       z     vdW  Elec       q    Type
REMARK                         _______ _______ _______ _____ _____    ______ ____
ROOT
ATOM      1  C   UNL     1      53.243 153.692  26.101  0.00  0.00    +0.019 C 
ATOM      2  C   UNL     1      53.344 152.339  25.854  0.00  0.00    +0.101 C 
ATOM      3  N   UNL     1      52.705 151.427  26.644  0.00  0.00    -0.225 NA
ATOM      4  C   UNL     1      51.957 151.793  27.686  0.00  0.00    +0.163 C 
ATOM      5  C   UNL     1      51.827 153.136  27.973  0.00  0.00    +0.050 C 
ATOM      6  C   UNL     1      52.468 154.068  27.181  0.00  0.00    +0.006 C 
ATOM      7  C   UNL     1      51.065 153.580  29.041  0.00  0.00    +0.066 C 
ATOM      8  C   UNL     1      50.440 152.619  29.809  0.00  0.00    +0.036 C 
ATOM      9  C   UNL     1      50.562 151.273  29.533  0.00  0.00    +0.102 C 
ATOM     10  N   UNL     1      51.317 150.909  28.480  0.00  0.00    -0.225 NA
ENDROOT
BRANCH   1  11
ATOM     11  C   UNL     1      53.902 154.705  25.289  0.00  0.00    +0.004 A 
ATOM     12  C   UNL     1      54.408 154.426  24.034  0.00  0.00    +0.018 A 
ATOM     13  C   UNL     1      55.034 155.390  23.265  0.00  0.00    +0.081 A 
ATOM     14  N   UNL     1      55.153 156.635  23.753  0.00  0.00    -0.245 NA
ATOM     15  C   UNL     1      54.683 156.978  24.972  0.00  0.00    +0.081 A 
ATOM     16  C   UNL     1      54.050 155.996  25.746  0.00  0.00    +0.018 A 
ATOM     17  C   UNL     1      53.587 156.397  26.980  0.00  0.00    +0.001 C 
ATOM     18  C   UNL     1      53.731 157.690  27.443  0.00  0.00    +0.000 C 
ATOM     19  C   UNL     1      54.349 158.624  26.671  0.00  0.00    +0.002 C 
ATOM     20  C   UNL     1      54.825 158.266  25.435  0.00  0.00    +0.019 C 
ATOM     21  C   UNL     1      55.543 155.124  22.012  0.00  0.00    +0.018 C 
ATOM     22  C   UNL     1      55.414 153.844  21.521  0.00  0.00    +0.001 C 
ATOM     23  C   UNL     1      54.792 152.864  22.271  0.00  0.00    +0.000 C 
ATOM     24  C   UNL     1      54.289 153.156  23.530  0.00  0.00    +0.001 C 
ATOM     25  C   UNL     1      55.916 153.547  20.269  0.00  0.00    +0.000 C 
ATOM     26  C   UNL     1      56.543 154.518  19.504  0.00  0.00    +0.000 C 
ATOM     27  C   UNL     1      56.675 155.793  19.983  0.00  0.00    +0.000 C 
ATOM     28  C   UNL     1      56.171 156.076  21.234  0.00  0.00    +0.001 C 
ENDBRANCH   1  11
BRANCH   7  29
ATOM     29  N   UNL     1      50.982 154.957  29.275  0.00  0.00    -0.201 N 
ATOM     30  C   UNL     1      52.134 155.760  29.477  0.00  0.00    +0.259 C 
ATOM     31  O   UNL     1      53.296 155.264  29.454  0.00  0.00    -0.269 OA
ATOM     32  C   UNL     1      51.986 157.192  29.717  0.00  0.00    +0.054 C 
ATOM     33  C   UNL     1      50.731 157.815  29.757  0.00  0.00    +0.009 C 
ATOM     34  C   UNL     1      50.628 159.166  29.987  0.00  0.00    +0.000 C 
ATOM     35  C   UNL     1      49.396 159.767  30.024  0.00  0.00    +0.000 C 
ATOM     36  C   UNL     1      48.259 159.006  29.831  0.00  0.00    +0.000 C 
ATOM     37  C   UNL     1      48.358 157.655  29.601  0.00  0.00    +0.005 C 
ATOM     38  C   UNL     1      49.591 157.044  29.562  0.00  0.00    +0.054 C 
ATOM     39  C   UNL     1      49.719 155.595  29.317  0.00  0.00    +0.259 C 
ATOM     40  O   UNL     1      48.684 154.940  29.146  0.00  0.00    -0.269 OA
ATOM     41  C   UNL     1      51.761 159.915  30.179  0.00  0.00    +0.000 C 
ATOM     42  C   UNL     1      53.006 159.302  30.140  0.00  0.00    +0.000 C 
ATOM     43  C   UNL     1      53.124 157.956  29.913  0.00  0.00    +0.005 C 
ENDBRANCH   7  29
TORSDOF 2
