MODEL 1
REMARK VINA RESULT:    -8.809      0.000      0.000
REMARK INTER + INTRA:          -8.819
REMARK INTER:                 -11.641
REMARK INTRA:                   2.822
REMARK UNBOUND:                 2.822
REMARK  Name = =
REMARK  6 active torsions:
REMARK  status: ('A' for Active; 'I' for Inactive)
REMARK    1  A    between atoms: C_3  and  C_19
REMARK    2  A    between atoms: C_10  and  C_25
REMARK    3  A    between atoms: C_11  and  C_22
REMARK    4  A    between atoms: C_17  and  C_29
REMARK    5  A    between atoms: C_25  and  C_27
REMARK    6  A    between atoms: N_30  and  N_31
REMARK                            x       y       z     vdW  Elec       q    Type
REMARK                         _______ _______ _______ _____ _____    ______ ____
ROOT
ATOM      1  C   UNL     1      -1.357  -7.705  30.092  0.00  0.00    +0.000 C 
ATOM      2  C   UNL     1      -1.505  -6.400  29.616  0.00  0.00    +0.004 C 
ATOM      3  C   UNL     1      -2.343  -5.500  30.248  0.00  0.00    +0.050 C 
ATOM      4  C   UNL     1      -3.020  -5.927  31.363  0.00  0.00    +0.007 C 
ATOM      5  C   UNL     1      -2.870  -7.237  31.835  0.00  0.00    +0.000 C 
ATOM      6  C   UNL     1      -2.045  -8.101  31.192  0.00  0.00    +0.000 C 
ATOM      7  C   UNL     1      -3.539  -7.718  32.936  0.00  0.00    +0.000 C 
ATOM      8  C   UNL     1      -4.402  -6.925  33.648  0.00  0.00    +0.000 C 
ATOM      9  C   UNL     1      -4.554  -5.637  33.201  0.00  0.00    +0.003 C 
ATOM     10  C   UNL     1      -3.873  -5.138  32.076  0.00  0.00    +0.042 C 
ATOM     11  C   UNL     1      -0.777  -6.088  28.502  0.00  0.00    +0.001 C 
ATOM     12  C   UNL     1       0.047  -7.021  27.892  0.00  0.00    +0.000 C 
ATOM     13  C   UNL     1       0.179  -8.297  28.365  0.00  0.00    +0.000 C 
ATOM     14  C   UNL     1      -0.535  -8.639  29.479  0.00  0.00    +0.000 C 
ATOM     15  C   UNL     1       1.030  -9.209  27.768  0.00  0.00    +0.000 C 
ATOM     16  C   UNL     1       1.785  -8.884  26.680  0.00  0.00    +0.002 C 
ATOM     17  C   UNL     1       1.688  -7.581  26.164  0.00  0.00    +0.021 C 
ATOM     18  C   UNL     1       0.832  -6.700  26.780  0.00  0.00    +0.002 C 
ENDROOT
BRANCH   3  19
ATOM     19  C   UNL     1      -2.628  -4.243  29.638  0.00  0.00    +0.254 C 
ATOM     20  O   UNL     1      -3.435  -3.856  28.801  0.00  0.00    -0.274 OA
ATOM     21 CL   UNL     1      -1.534  -2.921  30.258  0.00  0.00    -0.038 Cl
ENDBRANCH   3  19
BRANCH  11  22
ATOM     22  C   UNL     1      -0.730  -4.756  27.984  0.00  0.00    +0.006 C 
ATOM     23  C   UNL     1       0.259  -3.932  28.243  0.00  0.00    +0.035 C 
ATOM     24  I   UNL     1       1.932  -4.420  29.437  0.00  0.00    -0.042 I 
ENDBRANCH  11  22
BRANCH  10  25
ATOM     25  C   UNL     1      -4.033  -3.732  31.866  0.00  0.00    +0.238 C 
ATOM     26  O   UNL     1      -3.177  -2.940  32.273  0.00  0.00    -0.283 OA
BRANCH  25  27
ATOM     27  C   UNL     1      -5.193  -3.221  31.188  0.00  0.00    +0.276 C 
ATOM     28  O   UNL     1      -5.430  -1.971  31.122  0.00  0.00    -0.280 OA
ENDBRANCH  25  27
ENDBRANCH  10  25
BRANCH  17  29
ATOM     29  C   UNL     1       2.508  -7.276  25.008  0.00  0.00    +0.117 C 
ATOM     30  N   UNL     1       2.245  -7.532  23.793  0.00  0.00    -0.187 NA
BRANCH  30  31
ATOM     31  N   UNL     1       1.154  -8.147  23.255  0.00  0.00    -0.282 N 
ATOM     32  H   UNL     1       1.267  -8.798  22.525  0.00  0.00    +0.164 HD
ATOM     33  H   UNL     1       0.254  -7.940  23.595  0.00  0.00    +0.164 HD
ENDBRANCH  30  31
ENDBRANCH  17  29
TORSDOF 6
ENDMDL
