REMARK  Name = =
REMARK  6 active torsions:
REMARK  status: ('A' for Active; 'I' for Inactive)
REMARK    1  A    between atoms: C_3  and  C_19
REMARK    2  A    between atoms: C_10  and  C_25
REMARK    3  A    between atoms: C_11  and  C_22
REMARK    4  A    between atoms: C_17  and  C_29
REMARK    5  A    between atoms: C_25  and  C_27
REMARK    6  A    between atoms: N_30  and  N_31
REMARK                            x       y       z     vdW  Elec       q    Type
REMARK                         _______ _______ _______ _____ _____    ______ ____
ROOT
ATOM      1  C   UNL     1      -1.435  -3.338  29.373  0.00  0.00    +0.000 C 
ATOM      2  C   UNL     1      -1.167  -4.653  29.759  0.00  0.00    +0.004 C 
ATOM      3  C   UNL     1      -2.007  -5.329  30.624  0.00  0.00    +0.050 C 
ATOM      4  C   UNL     1      -3.119  -4.670  31.086  0.00  0.00    +0.007 C 
ATOM      5  C   UNL     1      -3.383  -3.351  30.697  0.00  0.00    +0.000 C 
ATOM      6  C   UNL     1      -2.538  -2.709  29.851  0.00  0.00    +0.000 C 
ATOM      7  C   UNL     1      -4.472  -2.641  31.145  0.00  0.00    +0.000 C 
ATOM      8  C   UNL     1      -5.379  -3.199  32.010  0.00  0.00    +0.000 C 
ATOM      9  C   UNL     1      -5.137  -4.493  32.394  0.00  0.00    +0.003 C 
ATOM     10  C   UNL     1      -4.025  -5.225  31.940  0.00  0.00    +0.042 C 
ATOM     11  C   UNL     1      -0.034  -5.208  29.232  0.00  0.00    +0.001 C 
ATOM     12  C   UNL     1       0.788  -4.494  28.373  0.00  0.00    +0.000 C 
ATOM     13  C   UNL     1       0.516  -3.205  28.007  0.00  0.00    +0.000 C 
ATOM     14  C   UNL     1      -0.611  -2.624  28.516  0.00  0.00    +0.000 C 
ATOM     15  C   UNL     1       1.325  -2.515  27.123  0.00  0.00    +0.000 C 
ATOM     16  C   UNL     1       2.433  -3.083  26.567  0.00  0.00    +0.002 C 
ATOM     17  C   UNL     1       2.747  -4.409  26.909  0.00  0.00    +0.021 C 
ATOM     18  C   UNL     1       1.923  -5.066  27.791  0.00  0.00    +0.002 C 
ENDROOT
BRANCH   3  19
ATOM     19  C   UNL     1      -1.615  -6.593  31.156  0.00  0.00    +0.254 C 
ATOM     20  O   UNL     1      -1.750  -7.757  30.796  0.00  0.00    -0.274 OA
ATOM     21 CL   UNL     1      -0.707  -6.419  32.728  0.00  0.00    -0.038 Cl
ENDBRANCH   3  19
BRANCH  11  22
ATOM     22  C   UNL     1       0.294  -6.585  29.436  0.00  0.00    +0.006 C 
ATOM     23  C   UNL     1       1.209  -6.973  30.294  0.00  0.00    +0.035 C 
ATOM     24  I   UNL     1       2.329  -5.662  31.514  0.00  0.00    -0.042 I 
ENDBRANCH  11  22
BRANCH  10  25
ATOM     25  C   UNL     1      -4.034  -6.605  32.318  0.00  0.00    +0.238 C 
ATOM     26  O   UNL     1      -4.334  -7.474  31.494  0.00  0.00    -0.283 OA
BRANCH  25  27
ATOM     27  C   UNL     1      -3.701  -6.998  33.660  0.00  0.00    +0.276 C 
ATOM     28  O   UNL     1      -3.306  -6.150  34.524  0.00  0.00    -0.280 OA
ENDBRANCH  25  27
ENDBRANCH  10  25
BRANCH  17  29
ATOM     29  C   UNL     1       3.932  -4.976  26.295  0.00  0.00    +0.117 C 
ATOM     30  N   UNL     1       4.542  -6.034  26.641  0.00  0.00    -0.187 NA
BRANCH  30  31
ATOM     31  N   UNL     1       4.264  -6.902  27.654  0.00  0.00    -0.282 N 
ATOM     32  H   UNL     1       4.837  -7.689  27.799  0.00  0.00    +0.164 HD
ATOM     33  H   UNL     1       3.490  -6.742  28.241  0.00  0.00    +0.164 HD
ENDBRANCH  30  31
ENDBRANCH  17  29
TORSDOF 6
