REMARK  Name = =
REMARK  0 active torsions:
REMARK  status: ('A' for Active; 'I' for Inactive)
REMARK                            x       y       z     vdW  Elec       q    Type
REMARK                         _______ _______ _______ _____ _____    ______ ____
ROOT
ATOM      1  O   UNL     1      -4.446  -3.794  30.948  0.00  0.00    -0.327 OA
ATOM      2  C   UNL     1      -3.645  -4.350  29.896  0.00  0.00    +0.177 C 
ATOM      3  C   UNL     1      -2.625  -3.291  30.303  0.00  0.00    +0.096 C 
ATOM      4  C   UNL     1      -3.860  -2.580  30.664  0.00  0.00    +0.247 C 
ATOM      5  O   UNL     1      -4.270  -1.412  30.716  0.00  0.00    -0.193 OA
ENDROOT
TORSDOF 0
