REMARK  Name = =
REMARK  1 active torsions:
REMARK  status: ('A' for Active; 'I' for Inactive)
REMARK    1  A    between atoms: C_1  and  C_8
REMARK                            x       y       z     vdW  Elec       q    Type
REMARK                         _______ _______ _______ _____ _____    ______ ____
ROOT
ATOM      1  C   UNL     1      -3.448  -6.236  31.473  0.00  0.00    -0.019 C 
ATOM      2  C   UNL     1      -2.222  -6.608  31.205  0.00  0.00    -0.032 C 
ATOM      3  C   UNL     1      -1.644  -7.852  31.704  0.00  0.00    +0.025 C 
ATOM      4  C   UNL     1      -2.636  -8.771  32.341  0.00  0.00    +0.005 C 
ATOM      5  C   UNL     1      -3.624  -8.021  33.222  0.00  0.00    +0.005 C 
ATOM      6  C   UNL     1      -4.351  -7.070  32.308  0.00  0.00    +0.024 C 
ENDROOT
BRANCH   1   8
ATOM      7  O   UNL     1      -4.115  -3.947  31.945  0.00  0.00    -0.326 OA
ATOM      8  C   UNL     1      -4.041  -4.969  30.968  0.00  0.00    +0.164 C 
ATOM      9  C   UNL     1      -3.158  -4.047  30.202  0.00  0.00    +0.098 C 
ATOM     10  C   UNL     1      -4.016  -3.053  30.892  0.00  0.00    +0.248 C 
ATOM     11  O   UNL     1      -4.482  -1.915  30.691  0.00  0.00    -0.192 OA
ENDBRANCH   1   8
TORSDOF 1
