REMARK  Name = =
REMARK  3 active torsions:
REMARK  status: ('A' for Active; 'I' for Inactive)
REMARK    1  A    between atoms: C_1  and  S_23
REMARK    2  A    between atoms: S_23  and  S_24
REMARK    3  A    between atoms: S_24  and  S_25
REMARK                            x       y       z     vdW  Elec       q    Type
REMARK                         _______ _______ _______ _____ _____    ______ ____
ROOT
ATOM      1  C   UNL     1      -0.645  -4.539  28.781  0.00  0.00    +0.114 C 
ATOM      2  C   UNL     1      -2.123  -4.394  28.723  0.00  0.00    +0.057 C 
ATOM      3  C   UNL     1      -2.571  -4.789  30.178  0.00  0.00    +0.042 C 
ATOM      4  C   UNL     1      -1.515  -5.511  29.475  0.00  0.00    +0.147 C 
ATOM      5  O   UNL     1      -1.789  -6.708  28.880  0.00  0.00    -0.463 OA
ATOM      6  C   UNL     1      -1.035  -7.845  28.729  0.00  0.00    +0.295 C 
ATOM      7  N   UNL     1       0.140  -7.911  29.202  0.00  0.00    -0.138 NA
ATOM      8  N   UNL     1       0.734  -6.890  29.881  0.00  0.00    -0.207 N 
ATOM      9  C   UNL     1      -3.746  -5.609  30.436  0.00  0.00    +0.008 C 
ATOM     10  C   UNL     1      -3.411  -6.831  31.258  0.00  0.00    +0.022 C 
ATOM     11  C   UNL     1      -2.460  -6.457  32.328  0.00  0.00    -0.048 C 
ATOM     12  C   UNL     1      -2.653  -5.248  32.838  0.00  0.00    -0.035 C 
ATOM     13  C   UNL     1      -3.876  -4.432  32.641  0.00  0.00    +0.025 C 
ATOM     14  C   UNL     1      -4.634  -4.778  31.389  0.00  0.00    +0.005 C 
ATOM     15  C   UNL     1      -1.389  -7.297  32.847  0.00  0.00    +0.023 C 
ATOM     16  C   UNL     1      -0.203  -7.569  32.028  0.00  0.00    +0.026 C 
ATOM     17  C   UNL     1       0.385  -6.503  31.201  0.00  0.00    +0.094 C 
ATOM     18  C   UNL     1       1.703  -5.930  31.728  0.00  0.00    +0.026 C 
ATOM     19  C   UNL     1       2.607  -5.777  30.519  0.00  0.00    +0.054 C 
ATOM     20  C   UNL     1       1.785  -6.137  29.312  0.00  0.00    +0.207 C 
ATOM     21  O   UNL     1       1.535  -5.167  28.425  0.00  0.00    -0.335 OA
ATOM     22  C   UNL     1       0.277  -5.130  27.828  0.00  0.00    +0.158 C 
ENDROOT
BRANCH   1  23
ATOM     23  S   UNL     1       0.106  -3.263  29.872  0.00  0.00    -0.067 S 
BRANCH  23  24
ATOM     24  S   UNL     1       0.670  -1.567  28.713  0.00  0.00    -0.027 S 
BRANCH  24  25
ATOM     25  S   UNL     1       2.670  -1.770  28.008  0.00  0.00    -0.099 S 
ATOM     26  H   UNL     1       3.005  -0.676  27.272  0.00  0.00    +0.115 HD
ENDBRANCH  24  25
ENDBRANCH  23  24
ENDBRANCH   1  23
TORSDOF 3
