REMARK  Name = =
REMARK  2 active torsions:
REMARK  status: ('A' for Active; 'I' for Inactive)
REMARK    1  A    between atoms: C_2  and  C_6
REMARK    2  A    between atoms: C_3  and  C_12
REMARK                            x       y       z     vdW  Elec       q    Type
REMARK                         _______ _______ _______ _____ _____    ______ ____
ROOT
ATOM      1  O   UNL     1      -2.672  -5.118  29.696  0.00  0.00    -0.447 OA
ATOM      2  C   UNL     1      -2.283  -4.996  31.053  0.00  0.00    +0.198 C 
ATOM      3  C   UNL     1      -3.157  -3.839  31.138  0.00  0.00    +0.143 C 
ATOM      4  C   UNL     1      -3.834  -4.443  30.002  0.00  0.00    +0.321 C 
ATOM      5  O   UNL     1      -5.011  -4.355  29.525  0.00  0.00    -0.250 OA
ENDROOT
BRANCH   2   6
ATOM      6  C   UNL     1      -2.568  -6.271  31.767  0.00  0.00    -0.004 C 
ATOM      7  C   UNL     1      -1.732  -6.676  32.703  0.00  0.00    -0.005 C 
ATOM      8  C   UNL     1      -1.913  -7.908  33.464  0.00  0.00    -0.005 C 
ATOM      9  C   UNL     1      -3.221  -8.596  33.358  0.00  0.00    -0.026 C 
ATOM     10  C   UNL     1      -4.292  -7.824  32.682  0.00  0.00    +0.030 C 
ATOM     11  C   UNL     1      -3.744  -7.113  31.477  0.00  0.00    +0.030 C 
ENDBRANCH   2   6
BRANCH   3  12
ATOM     12  C   UNL     1      -3.883  -3.437  32.342  0.00  0.00    +0.014 C 
ATOM     13  C   UNL     1      -4.887  -4.339  32.941  0.00  0.00    +0.001 C 
ATOM     14  C   UNL     1      -5.825  -3.326  33.635  0.00  0.00    +0.000 C 
ATOM     15  C   UNL     1      -5.732  -2.127  32.786  0.00  0.00    +0.000 C 
ATOM     16  C   UNL     1      -4.639  -2.162  32.039  0.00  0.00    +0.001 C 
ENDBRANCH   3  12
TORSDOF 2
