REMARK  Name = =
REMARK  7 active torsions:
REMARK  status: ('A' for Active; 'I' for Inactive)
REMARK    1  A    between atoms: C_1  and  S_29
REMARK    2  A    between atoms: C_15  and  N_23
REMARK    3  A    between atoms: C_22  and  N_25
REMARK    4  A    between atoms: N_25  and  C_26
REMARK    5  A    between atoms: C_26  and  N_28
REMARK    6  A    between atoms: S_29  and  S_30
REMARK    7  A    between atoms: S_30  and  S_31
REMARK                            x       y       z     vdW  Elec       q    Type
REMARK                         _______ _______ _______ _____ _____    ______ ____
ROOT
ATOM      1  C   UNL     1      -0.682  -3.914  28.658  0.00  0.00    +0.129 C 
ATOM      2  C   UNL     1      -1.262  -5.234  28.372  0.00  0.00    +0.058 C 
ATOM      3  C   UNL     1      -0.922  -6.503  28.999  0.00  0.00    +0.043 C 
ATOM      4  C   UNL     1       0.004  -5.252  28.994  0.00  0.00    +0.149 C 
ATOM      5  O   UNL     1       0.461  -5.105  30.268  0.00  0.00    -0.462 OA
ATOM      6  C   UNL     1       1.753  -4.744  30.617  0.00  0.00    +0.295 C 
ATOM      7  N   UNL     1       2.723  -4.524  29.831  0.00  0.00    -0.138 NA
ATOM      8  N   UNL     1       2.804  -4.567  28.479  0.00  0.00    -0.207 N 
ATOM      9  C   UNL     1      -0.351  -7.626  28.152  0.00  0.00    +0.008 C 
ATOM     10  C   UNL     1       1.084  -7.268  27.902  0.00  0.00    +0.024 C 
ATOM     11  C   UNL     1       1.965  -8.420  27.612  0.00  0.00    -0.027 C 
ATOM     12  C   UNL     1       1.441  -9.612  27.451  0.00  0.00    -0.033 C 
ATOM     13  C   UNL     1       0.036  -9.981  27.749  0.00  0.00    +0.025 C 
ATOM     14  C   UNL     1      -0.526  -8.984  28.739  0.00  0.00    +0.005 C 
ATOM     15  C   UNL     1       3.412  -8.133  27.535  0.00  0.00    +0.123 C 
ATOM     16  C   UNL     1       3.785  -6.840  28.235  0.00  0.00    +0.050 C 
ATOM     17  C   UNL     1       3.310  -5.610  27.629  0.00  0.00    +0.096 C 
ATOM     18  C   UNL     1       4.222  -4.874  26.721  0.00  0.00    +0.026 C 
ATOM     19  C   UNL     1       3.494  -3.533  26.558  0.00  0.00    +0.054 C 
ATOM     20  C   UNL     1       2.376  -3.522  27.569  0.00  0.00    +0.209 C 
ATOM     21  O   UNL     1       1.125  -3.790  27.033  0.00  0.00    -0.319 OA
ATOM     22  C   UNL     1       0.077  -3.135  27.612  0.00  0.00    +0.205 C 
ENDROOT
BRANCH  15  23
ATOM     23  N   UNL     1       3.927  -8.186  26.203  0.00  0.00    -0.265 NA
ATOM     24  C   UNL     1       3.274  -8.329  25.149  0.00  0.00    +0.114 C 
ENDBRANCH  15  23
BRANCH  22  25
ATOM     25  N   UNL     1      -0.924  -2.655  26.651  0.00  0.00    -0.294 N 
ATOM     26  H   UNL     1      -1.861  -2.933  26.767  0.00  0.00    +0.151 HD
BRANCH  25  27
ATOM     27  C   UNL     1      -0.597  -1.810  25.566  0.00  0.00    +0.130 C 
ATOM     28  S   UNL     1       0.780  -0.931  25.583  0.00  0.00    -0.019 S 
BRANCH  27  29
ATOM     29  N   UNL     1      -1.499  -1.740  24.466  0.00  0.00    -0.341 N 
ATOM     30  H   UNL     1      -1.295  -1.159  23.698  0.00  0.00    +0.144 HD
ATOM     31  H   UNL     1      -2.327  -2.273  24.474  0.00  0.00    +0.144 HD
ENDBRANCH  27  29
ENDBRANCH  25  27
ENDBRANCH  22  25
BRANCH   1  32
ATOM     32  S   UNL     1      -1.659  -3.015  29.840  0.00  0.00    -0.066 S 
BRANCH  32  33
ATOM     33  S   UNL     1      -3.490  -3.856  30.374  0.00  0.00    -0.027 S 
BRANCH  33  34
ATOM     34  S   UNL     1      -3.268  -4.799  32.265  0.00  0.00    -0.099 S 
ATOM     35  H   UNL     1      -4.452  -5.356  32.635  0.00  0.00    +0.115 HD
ENDBRANCH  33  34
ENDBRANCH  32  33
ENDBRANCH   1  32
TORSDOF 7
