REMARK  Name = =
REMARK  7 active torsions:
REMARK  status: ('A' for Active; 'I' for Inactive)
REMARK    1  A    between atoms: C_1  and  S_30
REMARK    2  A    between atoms: C_15  and  N_24
REMARK    3  A    between atoms: C_22  and  N_26
REMARK    4  A    between atoms: N_26  and  C_27
REMARK    5  A    between atoms: C_27  and  N_29
REMARK    6  A    between atoms: S_30  and  S_31
REMARK    7  A    between atoms: S_31  and  S_32
REMARK                            x       y       z     vdW  Elec       q    Type
REMARK                         _______ _______ _______ _____ _____    ______ ____
ROOT
ATOM      1  C   UNL     1       0.212  -5.667  29.101  0.00  0.00    +0.142 C 
ATOM      2  C   UNL     1      -0.066  -7.003  28.653  0.00  0.00    +0.060 C 
ATOM      3  C   UNL     1       0.967  -7.984  28.472  0.00  0.00    +0.043 C 
ATOM      4  C   UNL     1       1.208  -6.446  28.222  0.00  0.00    +0.150 C 
ATOM      5  O   UNL     1       0.930  -6.177  26.851  0.00  0.00    -0.462 OA
ATOM      6  C   UNL     1       1.617  -6.294  25.740  0.00  0.00    +0.295 C 
ATOM      7  N   UNL     1       2.622  -5.548  25.471  0.00  0.00    -0.138 NA
ATOM      8  N   UNL     1       3.002  -4.584  26.381  0.00  0.00    -0.207 N 
ATOM      9  C   UNL     1       1.937  -8.353  27.405  0.00  0.00    +0.008 C 
ATOM     10  C   UNL     1       3.281  -7.848  27.990  0.00  0.00    +0.024 C 
ATOM     11  C   UNL     1       4.331  -7.836  26.969  0.00  0.00    -0.027 C 
ATOM     12  C   UNL     1       4.368  -8.943  26.235  0.00  0.00    -0.033 C 
ATOM     13  C   UNL     1       3.542 -10.094  26.678  0.00  0.00    +0.025 C 
ATOM     14  C   UNL     1       2.131  -9.759  27.060  0.00  0.00    +0.005 C 
ATOM     15  C   UNL     1       5.290  -6.735  26.715  0.00  0.00    +0.123 C 
ATOM     16  C   UNL     1       5.049  -5.483  27.463  0.00  0.00    +0.050 C 
ATOM     17  C   UNL     1       4.348  -4.402  26.726  0.00  0.00    +0.096 C 
ATOM     18  C   UNL     1       4.379  -3.053  27.366  0.00  0.00    +0.026 C 
ATOM     19  C   UNL     1       2.983  -2.466  27.245  0.00  0.00    +0.054 C 
ATOM     20  C   UNL     1       2.079  -3.705  27.012  0.00  0.00    +0.210 C 
ATOM     21  O   UNL     1       1.579  -4.039  28.218  0.00  0.00    -0.309 OA
ATOM     22  C   UNL     1       0.226  -4.373  28.309  0.00  0.00    +0.246 C 
ATOM     23  N   UNL     1      -0.431  -4.469  27.035  0.00  0.00    -0.083 NA
ENDROOT
BRANCH  15  24
ATOM     24  N   UNL     1       5.409  -6.415  25.320  0.00  0.00    -0.265 NA
ATOM     25  C   UNL     1       6.467  -6.820  24.692  0.00  0.00    +0.114 C 
ENDBRANCH  15  24
BRANCH  22  26
ATOM     26  N   UNL     1      -0.381  -3.360  29.148  0.00  0.00    -0.283 N 
ATOM     27  H   UNL     1      -0.292  -3.438  30.125  0.00  0.00    +0.152 HD
BRANCH  26  28
ATOM     28  C   UNL     1      -1.102  -2.256  28.611  0.00  0.00    +0.131 C 
ATOM     29  S   UNL     1      -2.540  -1.872  29.243  0.00  0.00    -0.019 S 
BRANCH  28  30
ATOM     30  N   UNL     1      -0.606  -1.482  27.545  0.00  0.00    -0.341 N 
ATOM     31  H   UNL     1       0.267  -1.698  27.145  0.00  0.00    +0.144 HD
ATOM     32  H   UNL     1      -1.132  -0.725  27.200  0.00  0.00    +0.144 HD
ENDBRANCH  28  30
ENDBRANCH  26  28
ENDBRANCH  22  26
BRANCH   1  33
ATOM     33  S   UNL     1       0.537  -5.389  30.829  0.00  0.00    -0.064 S 
BRANCH  33  34
ATOM     34  S   UNL     1       0.497  -7.101  32.041  0.00  0.00    -0.027 S 
BRANCH  34  35
ATOM     35  S   UNL     1      -1.434  -7.271  32.905  0.00  0.00    -0.099 S 
ATOM     36  H   UNL     1      -1.481  -8.376  33.696  0.00  0.00    +0.115 HD
ENDBRANCH  34  35
ENDBRANCH  33  34
ENDBRANCH   1  33
TORSDOF 7
