REMARK  Name = =
REMARK  0 active torsions:
REMARK  status: ('A' for Active; 'I' for Inactive)
REMARK                            x       y       z     vdW  Elec       q    Type
REMARK                         _______ _______ _______ _____ _____    ______ ____
ROOT
ATOM      1  N   UNL     1      52.796 156.745  27.314  0.00  0.00    -0.264 N 
ATOM      2  C   UNL     1      53.183 156.164  26.177  0.00  0.00    +0.166 C 
ATOM      3  N   UNL     1      52.953 154.843  26.023  0.00  0.00    -0.226 NA
ATOM      4  C   UNL     1      52.355 154.084  26.954  0.00  0.00    +0.105 C 
ATOM      5  C   UNL     1      51.944 154.667  28.146  0.00  0.00    +0.079 C 
ATOM      6  C   UNL     1      52.191 156.017  28.278  0.00  0.00    +0.252 C 
ATOM      7  O   UNL     1      51.841 156.616  29.342  0.00  0.00    -0.270 OA
ATOM      8  H   UNL     1      52.952 157.707  27.451  0.00  0.00    +0.157 HD
ENDROOT
TORSDOF 0
