REMARK  Name = =
REMARK  0 active torsions:
REMARK  status: ('A' for Active; 'I' for Inactive)
REMARK                            x       y       z     vdW  Elec       q    Type
REMARK                         _______ _______ _______ _____ _____    ______ ____
ROOT
ATOM      1  C   UNL     1      50.716 154.866  29.219  0.00  0.00    +0.022 C 
ATOM      2  C   UNL     1      50.212 155.912  30.163  0.00  0.00    +0.004 C 
ATOM      3  C   UNL     1      50.537 157.255  29.566  0.00  0.00    +0.001 C 
ATOM      4  C   UNL     1      52.066 157.395  29.557  0.00  0.00    +0.004 C 
ATOM      5  C   UNL     1      52.578 156.560  28.450  0.00  0.00    +0.018 C 
ATOM      6  C   UNL     1      52.599 157.254  27.107  0.00  0.00    +0.009 C 
ATOM      7  C   UNL     1      53.356 156.389  26.126  0.00  0.00    +0.026 C 
ATOM      8  C   UNL     1      53.117 154.946  26.370  0.00  0.00    -0.024 C 
ATOM      9  C   UNL     1      53.856 154.009  25.756  0.00  0.00    +0.033 C 
ATOM     10  C   UNL     1      53.560 152.627  26.049  0.00  0.00    +0.173 C 
ATOM     11  O   UNL     1      54.372 151.736  25.665  0.00  0.00    -0.291 OA
ATOM     12  C   UNL     1      52.372 152.187  26.768  0.00  0.00    +0.074 C 
ATOM     13  C   UNL     1      51.342 153.237  27.045  0.00  0.00    +0.034 C 
ATOM     14  C   UNL     1      52.063 154.525  27.289  0.00  0.00    -0.033 C 
ATOM     15  C   UNL     1      51.789 155.318  28.312  0.00  0.00    -0.049 C 
ATOM     16  C   UNL     1      52.183 158.889  29.340  0.00  0.00    +0.000 C 
ATOM     17  C   UNL     1      51.235 159.391  30.436  0.00  0.00    +0.000 C 
ATOM     18  C   UNL     1      50.059 158.424  30.355  0.00  0.00    +0.000 C 
ENDROOT
TORSDOF 0
