REMARK  Name = =
REMARK  0 active torsions:
REMARK  status: ('A' for Active; 'I' for Inactive)
REMARK                            x       y       z     vdW  Elec       q    Type
REMARK                         _______ _______ _______ _____ _____    ______ ____
ROOT
ATOM      1  N   UNL     1      52.244 156.162  27.927  0.00  0.00    -0.253 N 
ATOM      2  C   UNL     1      52.854 155.721  26.709  0.00  0.00    +0.246 C 
ATOM      3  O   UNL     1      53.047 156.558  25.797  0.00  0.00    -0.273 OA
ATOM      4  C   UNL     1      53.212 154.288  26.629  0.00  0.00    +0.174 C 
ATOM      5  N   UNL     1      52.220 153.392  27.113  0.00  0.00    -0.199 NA
ATOM      6  C   UNL     1      51.218 153.933  27.968  0.00  0.00    +0.174 C 
ATOM      7  C   UNL     1      51.618 155.148  28.707  0.00  0.00    +0.246 C 
ATOM      8  O   UNL     1      51.438 155.318  29.940  0.00  0.00    -0.273 OA
ATOM      9  H   UNL     1      52.256 157.106  28.207  0.00  0.00    +0.158 HD
ENDROOT
TORSDOF 0
