REMARK  Name = =
REMARK  1 active torsions:
REMARK  status: ('A' for Active; 'I' for Inactive)
REMARK    1  A    between atoms: C_2  and  N_7
REMARK                            x       y       z     vdW  Elec       q    Type
REMARK                         _______ _______ _______ _____ _____    ______ ____
ROOT
ATOM      1  N   UNL     1      53.169 157.703  29.300  0.00  0.00    -0.280 NA
ATOM      2  C   UNL     1      52.223 157.268  28.302  0.00  0.00    +0.151 C 
ATOM      3  C   UNL     1      50.802 157.636  28.629  0.00  0.00    +0.106 C 
ATOM      4  N   UNL     1      50.629 158.043  30.006  0.00  0.00    -0.294 NA
ATOM      5  C   UNL     1      51.495 159.147  30.364  0.00  0.00    +0.086 C 
ATOM      6  C   UNL     1      52.845 159.058  29.664  0.00  0.00    +0.087 C 
ATOM      7  H   UNL     1      53.107 157.100  30.121  0.00  0.00    +0.125 HD
ATOM      8  H   UNL     1      50.840 157.250  30.612  0.00  0.00    +0.123 HD
ENDROOT
BRANCH   2   9
ATOM      9  N   UNL     1      52.360 155.858  27.985  0.00  0.00    -0.245 N 
ATOM     10  C   UNL     1      52.863 155.422  26.806  0.00  0.00    +0.223 C 
ATOM     11  N   UNL     1      52.988 154.107  26.518  0.00  0.00    -0.251 NA
ATOM     12  C   UNL     1      52.622 153.150  27.376  0.00  0.00    +0.078 C 
ATOM     13  C   UNL     1      52.103 153.550  28.588  0.00  0.00    +0.132 C 
ATOM     14  C   UNL     1      51.984 154.901  28.865  0.00  0.00    +0.234 C 
ATOM     15  O   UNL     1      51.512 155.307  29.971  0.00  0.00    -0.274 OA
ENDBRANCH   2   9
TORSDOF 1
