REMARK  Name = =
REMARK  1 active torsions:
REMARK  status: ('A' for Active; 'I' for Inactive)
REMARK    1  A    between atoms: C_1  and  N_10
REMARK                            x       y       z     vdW  Elec       q    Type
REMARK                         _______ _______ _______ _____ _____    ______ ____
ROOT
ATOM      1  C   UNL     1      52.257 153.963  26.797  0.00  0.00    +0.083 C 
ATOM      2  C   UNL     1      53.452 153.096  26.925  0.00  0.00    +0.021 C 
ATOM      3  C   UNL     1      53.299 152.137  25.742  0.00  0.00    +0.006 C 
ATOM      4  C   UNL     1      54.725 151.711  25.386  0.00  0.00    +0.022 C 
ATOM      5  C   UNL     1      55.269 153.020  24.881  0.00  0.00    -0.044 C 
ATOM      6  C   UNL     1      56.453 153.554  25.132  0.00  0.00    -0.009 C 
ATOM      7  C   UNL     1      54.171 153.586  24.028  0.00  0.00    +0.022 C 
ATOM      8  C   UNL     1      52.884 153.087  24.648  0.00  0.00    +0.006 C 
ATOM      9  C   UNL     1      52.150 154.218  25.309  0.00  0.00    +0.021 C 
ENDROOT
BRANCH   1  10
ATOM     10  N   UNL     1      52.345 155.181  27.562  0.00  0.00    -0.225 N 
ATOM     11  C   UNL     1      51.832 155.278  28.883  0.00  0.00    +0.274 C 
ATOM     12  O   UNL     1      51.537 154.224  29.512  0.00  0.00    -0.268 OA
ATOM     13  C   UNL     1      51.654 156.622  29.493  0.00  0.00    +0.152 C 
ATOM     14  N   UNL     1      52.602 157.602  29.117  0.00  0.00    -0.254 NA
ATOM     15  C   UNL     1      53.504 157.290  28.064  0.00  0.00    +0.211 C 
ATOM     16  C   UNL     1      52.957 156.366  27.043  0.00  0.00    +0.256 C 
ATOM     17  O   UNL     1      52.998 156.552  25.804  0.00  0.00    -0.272 OA
ENDBRANCH   1  10
TORSDOF 1
