REMARK  Name = =
REMARK  2 active torsions:
REMARK  status: ('A' for Active; 'I' for Inactive)
REMARK    1  A    between atoms: C_1  and  N_10
REMARK    2  A    between atoms: C_1  and  C_20
REMARK                            x       y       z     vdW  Elec       q    Type
REMARK                         _______ _______ _______ _____ _____    ______ ____
ROOT
ATOM      1  C   UNL     1      53.492 153.946  26.550  0.00  0.00    +0.108 C 
ATOM      2  C   UNL     1      53.628 152.521  26.188  0.00  0.00    +0.025 C 
ATOM      3  C   UNL     1      54.812 152.545  25.213  0.00  0.00    +0.006 C 
ATOM      4  C   UNL     1      55.669 151.290  25.332  0.00  0.00    +0.022 C 
ATOM      5  C   UNL     1      56.845 151.655  26.148  0.00  0.00    -0.044 C 
ATOM      6  C   UNL     1      58.025 151.091  26.224  0.00  0.00    -0.009 C 
ATOM      7  C   UNL     1      56.427 152.886  26.915  0.00  0.00    +0.022 C 
ATOM      8  C   UNL     1      55.726 153.639  25.784  0.00  0.00    +0.006 C 
ATOM      9  C   UNL     1      54.771 154.668  26.321  0.00  0.00    +0.025 C 
ENDROOT
BRANCH   1  10
ATOM     10  N   UNL     1      52.793 154.375  27.674  0.00  0.00    -0.225 N 
ATOM     11  C   UNL     1      52.174 153.501  28.630  0.00  0.00    +0.249 C 
ATOM     12  O   UNL     1      52.074 152.315  28.352  0.00  0.00    -0.273 OA
ATOM     13  C   UNL     1      51.708 154.147  29.892  0.00  0.00    +0.175 C 
ATOM     14  N   UNL     1      50.877 155.276  29.500  0.00  0.00    -0.199 NA
ATOM     15  C   UNL     1      51.704 156.301  28.968  0.00  0.00    +0.175 C 
ATOM     16  C   UNL     1      52.740 155.749  28.028  0.00  0.00    +0.249 C 
ATOM     17  O   UNL     1      53.560 156.626  27.593  0.00  0.00    -0.273 OA
ENDBRANCH   1  10
BRANCH   1  20
ATOM     18  C   UNL     1      51.721 155.147  22.914  0.00  0.00    +0.057 C 
ATOM     19  S   UNL     1      53.325 154.627  23.699  0.00  0.00    -0.069 S 
ATOM     20  C   UNL     1      52.572 154.440  25.324  0.00  0.00    +0.105 C 
ATOM     21  N   UNL     1      51.461 154.720  25.139  0.00  0.00    -0.240 NA
ATOM     22  C   UNL     1      50.929 155.082  24.010  0.00  0.00    +0.106 C 
ENDBRANCH   1  20
TORSDOF 2
