REMARK  Name = =
REMARK  4 active torsions:
REMARK  status: ('A' for Active; 'I' for Inactive)
REMARK    1  A    between atoms: C_1  and  N_10
REMARK    2  A    between atoms: C_1  and  C_20
REMARK    3  A    between atoms: C_18  and  C_23
REMARK    4  A    between atoms: N_24  and  N_25
REMARK                            x       y       z     vdW  Elec       q    Type
REMARK                         _______ _______ _______ _____ _____    ______ ____
ROOT
ATOM      1  C   UNL     1      53.263 153.833  26.886  0.00  0.00    +0.108 C 
ATOM      2  C   UNL     1      53.919 152.787  27.717  0.00  0.00    +0.025 C 
ATOM      3  C   UNL     1      53.206 151.488  27.334  0.00  0.00    +0.006 C 
ATOM      4  C   UNL     1      52.573 150.849  28.588  0.00  0.00    +0.022 C 
ATOM      5  C   UNL     1      51.365 150.171  28.078  0.00  0.00    -0.044 C 
ATOM      6  C   UNL     1      50.949 148.988  28.520  0.00  0.00    -0.009 C 
ATOM      7  C   UNL     1      50.811 151.070  27.046  0.00  0.00    +0.022 C 
ATOM      8  C   UNL     1      51.965 151.910  26.554  0.00  0.00    +0.006 C 
ATOM      9  C   UNL     1      51.808 153.371  26.935  0.00  0.00    +0.025 C 
ENDROOT
BRANCH   1  10
ATOM     10  N   UNL     1      53.321 155.152  27.425  0.00  0.00    -0.225 N 
ATOM     11  C   UNL     1      54.310 156.084  26.964  0.00  0.00    +0.249 C 
ATOM     12  O   UNL     1      55.136 155.830  26.061  0.00  0.00    -0.273 OA
ATOM     13  C   UNL     1      54.236 157.385  27.688  0.00  0.00    +0.175 C 
ATOM     14  N   UNL     1      52.835 157.805  27.522  0.00  0.00    -0.199 NA
ATOM     15  C   UNL     1      51.934 157.005  28.341  0.00  0.00    +0.175 C 
ATOM     16  C   UNL     1      52.418 155.590  28.422  0.00  0.00    +0.249 C 
ATOM     17  O   UNL     1      52.066 154.793  29.317  0.00  0.00    -0.273 OA
ENDBRANCH   1  10
BRANCH   1  20
ATOM     18  C   UNL     1      54.822 153.563  23.085  0.00  0.00    +0.070 C 
ATOM     19  S   UNL     1      55.372 153.677  24.826  0.00  0.00    -0.068 S 
ATOM     20  C   UNL     1      53.587 153.761  25.428  0.00  0.00    +0.105 C 
ATOM     21  N   UNL     1      53.030 153.700  24.449  0.00  0.00    -0.240 NA
ATOM     22  C   UNL     1      53.491 153.599  23.218  0.00  0.00    +0.107 C 
BRANCH  18  23
ATOM     23  C   UNL     1      55.679 153.479  21.930  0.00  0.00    +0.125 C 
ATOM     24  N   UNL     1      55.112 153.668  20.799  0.00  0.00    -0.187 NA
BRANCH  24  25
ATOM     25  N   UNL     1      55.676 153.640  19.545  0.00  0.00    -0.282 N 
ATOM     26  H   UNL     1      55.118 153.805  18.751  0.00  0.00    +0.164 HD
ATOM     27  H   UNL     1      56.638 153.455  19.442  0.00  0.00    +0.164 HD
ENDBRANCH  24  25
ENDBRANCH  18  23
ENDBRANCH   1  20
TORSDOF 4
