REMARK  Name = =
REMARK  6 active torsions:
REMARK  status: ('A' for Active; 'I' for Inactive)
REMARK    1  A    between atoms: C_1  and  C_26
REMARK    2  A    between atoms: C_6  and  N_15
REMARK    3  A    between atoms: N_23  and  C_26
REMARK    4  A    between atoms: C_24  and  C_28
REMARK    5  A    between atoms: C_26  and  N_27
REMARK    6  A    between atoms: N_27  and  N_31
REMARK                            x       y       z     vdW  Elec       q    Type
REMARK                         _______ _______ _______ _____ _____    ______ ____
ROOT
ATOM      1  C   UNL     1      51.647 154.042  28.130  0.00  0.00    +0.054 C 
ATOM      2  S   UNL     1      52.714 155.452  28.731  0.00  0.00    -0.121 S 
ATOM      3  C   UNL     1      51.182 156.553  28.922  0.00  0.00    +0.096 C 
ATOM      4  N   UNL     1      50.378 155.810  28.576  0.00  0.00    -0.241 NA
ATOM      5  C   UNL     1      50.425 154.582  28.166  0.00  0.00    +0.104 C 
ATOM      6  C   UNL     1      51.440 157.929  29.439  0.00  0.00    +0.108 C 
ATOM      7  C   UNL     1      52.046 158.796  28.359  0.00  0.00    +0.026 C 
ATOM      8  C   UNL     1      53.335 158.053  28.029  0.00  0.00    +0.015 C 
ATOM      9  C   UNL     1      54.472 159.066  27.961  0.00  0.00    +0.023 C 
ATOM     10  C   UNL     1      55.170 158.930  29.254  0.00  0.00    -0.043 C 
ATOM     11  C   UNL     1      55.759 159.836  30.006  0.00  0.00    -0.009 C 
ATOM     12  C   UNL     1      55.076 157.466  29.587  0.00  0.00    +0.032 C 
ATOM     13  C   UNL     1      53.630 157.196  29.263  0.00  0.00    +0.046 C 
ATOM     14  C   UNL     1      52.687 157.768  30.328  0.00  0.00    +0.035 C 
ENDROOT
BRANCH   6  15
ATOM     15  N   UNL     1      50.336 158.512  30.096  0.00  0.00    -0.225 N 
ATOM     16  C   UNL     1      50.452 159.846  30.612  0.00  0.00    +0.249 C 
ATOM     17  O   UNL     1      51.549 160.410  30.752  0.00  0.00    -0.273 OA
ATOM     18  C   UNL     1      49.239 160.593  30.994  0.00  0.00    +0.175 C 
ATOM     19  N   UNL     1      48.095 159.779  31.297  0.00  0.00    -0.199 NA
ATOM     20  C   UNL     1      47.875 158.695  30.375  0.00  0.00    +0.175 C 
ATOM     21  C   UNL     1      49.077 157.848  30.282  0.00  0.00    +0.249 C 
ATOM     22  O   UNL     1      49.090 156.597  30.351  0.00  0.00    -0.273 OA
ENDBRANCH   6  15
BRANCH   1  23
ATOM     23  C   UNL     1      52.281 152.793  27.749  0.00  0.00    +0.193 C 
BRANCH  23  24
ATOM     24  N   UNL     1      53.327 152.486  26.860  0.00  0.00    -0.280 N 
ATOM     25  C   UNL     1      53.365 152.951  25.571  0.00  0.00    +0.300 C 
ATOM     26  O   UNL     1      52.278 153.608  25.329  0.00  0.00    -0.265 OA
ATOM     27  H   UNL     1      54.062 151.913  27.177  0.00  0.00    +0.151 HD
BRANCH  25  28
ATOM     28  C   UNL     1      54.400 152.759  24.628  0.00  0.00    +0.296 C 
ATOM     29  O   UNL     1      54.223 152.363  23.475  0.00  0.00    -0.265 OA
ATOM     30  N   UNL     1      55.723 153.062  25.078  0.00  0.00    -0.322 N 
ATOM     31  H   UNL     1      55.869 153.379  25.999  0.00  0.00    +0.145 HD
ATOM     32  H   UNL     1      56.488 152.954  24.467  0.00  0.00    +0.145 HD
ENDBRANCH  25  28
ENDBRANCH  23  24
BRANCH  23  33
ATOM     33  N   UNL     1      52.171 151.819  28.598  0.00  0.00    -0.130 NA
BRANCH  33  34
ATOM     34  N   UNL     1      51.109 152.131  29.456  0.00  0.00    -0.250 NA
ATOM     35  H   UNL     1      50.993 151.383  30.140  0.00  0.00    +0.138 HD
ATOM     36  H   UNL     1      50.251 152.231  28.913  0.00  0.00    +0.138 HD
ENDBRANCH  33  34
ENDBRANCH  23  33
ENDBRANCH   1  23
TORSDOF 6
