REMARK  Name = =
REMARK  6 active torsions:
REMARK  status: ('A' for Active; 'I' for Inactive)
REMARK    1  A    between atoms: C_1  and  C_26
REMARK    2  A    between atoms: C_3  and  C_6
REMARK    3  A    between atoms: C_6  and  N_15
REMARK    4  A    between atoms: N_23  and  N_31
REMARK    5  A    between atoms: C_24  and  C_28
REMARK    6  A    between atoms: N_27  and  N_37
REMARK                            x       y       z     vdW  Elec       q    Type
REMARK                         _______ _______ _______ _____ _____    ______ ____
ROOT
ATOM      1  C   UNL     1      53.474 156.669  27.386  0.00  0.00    +0.084 C 
ATOM      2  S   UNL     1      51.916 157.536  27.631  0.00  0.00    -0.066 S 
ATOM      3  C   UNL     1      52.402 158.284  29.219  0.00  0.00    +0.105 C 
ATOM      4  N   UNL     1      53.574 157.811  29.337  0.00  0.00    -0.239 NA
ATOM      5  C   UNL     1      54.150 157.025  28.482  0.00  0.00    +0.108 C 
ENDROOT
BRANCH   3   6
ATOM      6  C   UNL     1      51.494 159.194  29.955  0.00  0.00    +0.108 C 
ATOM      7  C   UNL     1      51.787 160.576  29.430  0.00  0.00    +0.025 C 
ATOM      8  C   UNL     1      51.476 161.535  30.547  0.00  0.00    +0.006 C 
ATOM      9  C   UNL     1      52.296 162.801  30.397  0.00  0.00    +0.022 C 
ATOM     10  C   UNL     1      53.429 162.655  31.317  0.00  0.00    -0.044 C 
ATOM     11  C   UNL     1      54.249 163.607  31.701  0.00  0.00    -0.009 C 
ATOM     12  C   UNL     1      53.480 161.228  31.735  0.00  0.00    +0.022 C 
ATOM     13  C   UNL     1      52.049 160.775  31.732  0.00  0.00    +0.006 C 
ATOM     14  C   UNL     1      52.000 159.293  31.364  0.00  0.00    +0.025 C 
BRANCH   6  15
ATOM     15  N   UNL     1      50.145 158.764  29.854  0.00  0.00    -0.225 N 
ATOM     16  C   UNL     1      49.888 157.365  30.096  0.00  0.00    +0.249 C 
ATOM     17  O   UNL     1      50.751 156.691  30.694  0.00  0.00    -0.273 OA
ATOM     18  C   UNL     1      48.598 156.806  29.615  0.00  0.00    +0.175 C 
ATOM     19  N   UNL     1      47.569 157.743  30.018  0.00  0.00    -0.199 NA
ATOM     20  C   UNL     1      47.734 158.977  29.288  0.00  0.00    +0.175 C 
ATOM     21  C   UNL     1      49.070 159.621  29.531  0.00  0.00    +0.249 C 
ATOM     22  O   UNL     1      49.194 160.860  29.447  0.00  0.00    -0.273 OA
ENDBRANCH   6  15
ENDBRANCH   3   6
BRANCH   1  26
ATOM     23  N   UNL     1      53.375 154.503  26.031  0.00  0.00    -0.157 N 
ATOM     24  C   UNL     1      53.559 153.671  24.909  0.00  0.00    +0.322 C 
ATOM     25  O   UNL     1      53.181 152.441  25.077  0.00  0.00    -0.263 OA
ATOM     26  C   UNL     1      53.737 155.850  26.168  0.00  0.00    +0.177 C 
ATOM     27  N   UNL     1      54.345 156.475  25.174  0.00  0.00    -0.171 NA
BRANCH  23  28
ATOM     28  N   UNL     1      52.780 153.883  27.178  0.00  0.00    -0.106 NA
ATOM     29  C   UNL     1      53.577 153.866  28.351  0.00  0.00    +0.291 C 
ATOM     30  O   UNL     1      53.197 153.321  29.413  0.00  0.00    -0.197 OA
ATOM     31  N   UNL     1      51.536 153.288  27.165  0.00  0.00    -0.194 NA
ATOM     32  C   UNL     1      51.325 152.258  28.159  0.00  0.00    +0.271 C 
ATOM     33  O   UNL     1      52.267 151.974  28.956  0.00  0.00    -0.199 OA
ATOM     34  H   UNL     1      51.398 152.869  26.245  0.00  0.00    +0.146 HD
ENDBRANCH  23  28
BRANCH  24  35
ATOM     35  C   UNL     1      54.095 153.959  23.618  0.00  0.00    +0.298 C 
ATOM     36  O   UNL     1      54.378 155.083  23.139  0.00  0.00    -0.265 OA
ATOM     37  N   UNL     1      54.350 152.821  22.729  0.00  0.00    -0.322 N 
ATOM     38  H   UNL     1      54.154 151.905  23.033  0.00  0.00    +0.145 HD
ATOM     39  H   UNL     1      54.718 152.973  21.828  0.00  0.00    +0.145 HD
ENDBRANCH  24  35
BRANCH  27  40
ATOM     40  N   UNL     1      54.686 157.806  25.351  0.00  0.00    -0.281 N 
ATOM     41  H   UNL     1      55.140 158.298  24.629  0.00  0.00    +0.164 HD
ATOM     42  H   UNL     1      54.475 158.260  26.199  0.00  0.00    +0.164 HD
ENDBRANCH  27  40
ENDBRANCH   1  26
TORSDOF 6
