REMARK  Name = =
REMARK  0 active torsions:
REMARK  status: ('A' for Active; 'I' for Inactive)
REMARK                            x       y       z     vdW  Elec       q    Type
REMARK                         _______ _______ _______ _____ _____    ______ ____
ROOT
ATOM      1  C   UNL     1      49.743 156.966  30.113  0.00  0.00    +0.102 C 
ATOM      2  C   UNL     1      50.720 156.398  29.323  0.00  0.00    +0.037 C 
ATOM      3  C   UNL     1      51.825 157.170  29.025  0.00  0.00    +0.085 C 
ATOM      4  N   UNL     1      51.916 158.433  29.502  0.00  0.00    -0.224 NA
ATOM      5  C   UNL     1      50.947 158.977  30.276  0.00  0.00    +0.199 C 
ATOM      6  N   UNL     1      49.867 158.232  30.572  0.00  0.00    -0.222 NA
ATOM      7  C   UNL     1      52.808 156.610  28.236  0.00  0.00    +0.019 C 
ATOM      8  C   UNL     1      52.704 155.333  27.760  0.00  0.00    +0.002 C 
ATOM      9  C   UNL     1      51.607 154.544  28.048  0.00  0.00    +0.000 C 
ATOM     10  C   UNL     1      50.622 155.107  28.838  0.00  0.00    +0.003 C 
ENDROOT
TORSDOF 0
