REMARK  Name = =
REMARK  4 active torsions:
REMARK  status: ('A' for Active; 'I' for Inactive)
REMARK    1  A    between atoms: N_1  and  C_9
REMARK    2  A    between atoms: N_1  and  C_12
REMARK    3  A    between atoms: C_15  and  C_18
REMARK    4  A    between atoms: C_18  and  O_20
REMARK                            x       y       z     vdW  Elec       q    Type
REMARK                         _______ _______ _______ _____ _____    ______ ____
ROOT
ATOM      1  N   UNL     1      53.468 154.904  26.770  0.00  0.00    -0.312 N 
ATOM      2  H   UNL     1      54.157 155.483  26.372  0.00  0.00    +0.152 HD
ENDROOT
BRANCH   1  10
ATOM      3  C   UNL     1      50.054 157.598  30.329  0.00  0.00    +0.102 C 
ATOM      4  C   UNL     1      50.874 156.891  29.462  0.00  0.00    +0.037 C 
ATOM      5  C   UNL     1      51.954 157.525  28.883  0.00  0.00    +0.086 C 
ATOM      6  N   UNL     1      52.156 158.820  29.199  0.00  0.00    -0.224 NA
ATOM      7  C   UNL     1      51.367 159.502  30.035  0.00  0.00    +0.199 C 
ATOM      8  N   UNL     1      50.315 158.885  30.598  0.00  0.00    -0.222 NA
ATOM      9  C   UNL     1      52.784 156.845  28.019  0.00  0.00    +0.034 C 
ATOM     10  C   UNL     1      52.586 155.502  27.683  0.00  0.00    +0.050 C 
ATOM     11  C   UNL     1      51.505 154.893  28.269  0.00  0.00    +0.015 C 
ATOM     12  C   UNL     1      50.658 155.580  29.150  0.00  0.00    +0.004 C 
ENDBRANCH   1  10
BRANCH   1  13
ATOM     13  C   UNL     1      53.460 153.545  26.367  0.00  0.00    +0.048 C 
ATOM     14  C   UNL     1      52.747 152.574  26.992  0.00  0.00    +0.015 C 
ATOM     15  C   UNL     1      52.789 151.263  26.493  0.00  0.00    +0.008 C 
ATOM     16  C   UNL     1      53.525 150.908  25.390  0.00  0.00    +0.076 C 
ATOM     17  C   UNL     1      54.247 151.895  24.757  0.00  0.00    +0.008 C 
ATOM     18  C   UNL     1      54.208 153.194  25.248  0.00  0.00    +0.015 C 
BRANCH  16  19
ATOM     19  C   UNL     1      53.555 149.539  24.887  0.00  0.00    +0.338 C 
ATOM     20  O   UNL     1      54.304 149.217  23.928  0.00  0.00    -0.245 OA
BRANCH  19  21
ATOM     21  O   UNL     1      52.772 148.530  25.429  0.00  0.00    -0.477 OA
ATOM     22  H   UNL     1      52.197 148.717  26.145  0.00  0.00    +0.295 HD
ENDBRANCH  19  21
ENDBRANCH  16  19
ENDBRANCH   1  13
TORSDOF 4
