REMARK  Name = =
REMARK  6 active torsions:
REMARK  status: ('A' for Active; 'I' for Inactive)
REMARK    1  A    between atoms: C_1  and  C_3
REMARK    2  A    between atoms: C_2  and  C_7
REMARK    3  A    between atoms: N_5  and  O_6
REMARK    4  A    between atoms: C_7  and  P_9
REMARK    5  A    between atoms: P_9  and  O_11
REMARK    6  A    between atoms: P_9  and  O_12
REMARK                            x       y       z     vdW  Elec       q    Type
REMARK                         _______ _______ _______ _____ _____    ______ ____
ROOT
ATOM      1  C   UNL     1      53.715 154.658  25.402  0.00  0.00    +0.060 C 
ATOM      2  C   UNL     1      54.037 153.604  24.713  0.00  0.00    +0.012 C 
ENDROOT
BRANCH   1   3
ATOM      3  C   UNL     1      53.868 156.026  24.950  0.00  0.00    +0.268 C 
ATOM      4  O   UNL     1      52.951 156.867  25.156  0.00  0.00    -0.268 OA
ATOM      5  N   UNL     1      55.014 156.512  24.265  0.00  0.00    -0.193 N 
ATOM      6  H   UNL     1      55.757 155.893  24.078  0.00  0.00    +0.183 HD
BRANCH   5   7
ATOM      7  O   UNL     1      55.117 157.817  23.856  0.00  0.00    -0.295 OA
ATOM      8  H   UNL     1      54.314 158.299  24.109  0.00  0.00    +0.241 HD
ENDBRANCH   5   7
ENDBRANCH   1   3
BRANCH   2   9
ATOM      9  C   UNL     1      53.845 152.274  25.254  0.00  0.00    +0.080 C 
ATOM     10  C   UNL     1      54.562 151.275  24.785  0.00  0.00    +0.008 C 
BRANCH   9  11
ATOM     11  P   UNL     1      52.642 151.971  26.555  0.00  0.00    +0.359 P 
ATOM     12  O   UNL     1      52.359 150.481  26.592  0.00  0.00    -0.253 OA
BRANCH  11  13
ATOM     13  O   UNL     1      51.234 152.807  26.200  0.00  0.00    -0.321 OA
ATOM     14  H   UNL     1      50.879 152.497  25.352  0.00  0.00    +0.220 HD
ENDBRANCH  11  13
BRANCH  11  15
ATOM     15  O   UNL     1      53.241 152.514  28.016  0.00  0.00    -0.321 OA
ATOM     16  H   UNL     1      54.057 152.035  28.229  0.00  0.00    +0.220 HD
ENDBRANCH  11  15
ENDBRANCH   9  11
ENDBRANCH   2   9
TORSDOF 6
