REMARK  Name = =
REMARK  5 active torsions:
REMARK  status: ('A' for Active; 'I' for Inactive)
REMARK    1  A    between atoms: C_1  and  C_11
REMARK    2  A    between atoms: C_8  and  N_17
REMARK    3  A    between atoms: N_17  and  C_18
REMARK    4  A    between atoms: C_21  and  C_24
REMARK    5  A    between atoms: C_24  and  O_26
REMARK                            x       y       z     vdW  Elec       q    Type
REMARK                         _______ _______ _______ _____ _____    ______ ____
ROOT
ATOM      1  C   UNL     1      50.156 158.771  30.118  0.00  0.00    +0.062 C 
ATOM      2  C   UNL     1      50.385 157.446  29.832  0.00  0.00    +0.031 C 
ATOM      3  C   UNL     1      51.701 157.058  29.539  0.00  0.00    +0.085 C 
ATOM      4  N   UNL     1      52.718 157.937  29.531  0.00  0.00    -0.224 NA
ATOM      5  C   UNL     1      52.471 159.214  29.810  0.00  0.00    +0.199 C 
ATOM      6  N   UNL     1      51.218 159.592  30.091  0.00  0.00    -0.228 NA
ATOM      7  C   UNL     1      52.008 155.755  29.237  0.00  0.00    +0.034 C 
ATOM      8  C   UNL     1      50.990 154.809  29.224  0.00  0.00    +0.050 C 
ATOM      9  C   UNL     1      49.701 155.207  29.515  0.00  0.00    +0.015 C 
ATOM     10  C   UNL     1      49.379 156.513  29.819  0.00  0.00    +0.004 C 
ENDROOT
BRANCH   1  11
ATOM     11  C   UNL     1      48.799 159.264  30.466  0.00  0.00    +0.043 C 
ATOM     12  C   UNL     1      48.846 160.802  30.389  0.00  0.00    +0.025 C 
ATOM     13  C   UNL     1      49.529 161.276  31.651  0.00  0.00    +0.089 C 
ATOM     14  N   UNL     1      48.491 161.277  32.677  0.00  0.00    -0.218 NA
ATOM     15  C   UNL     1      47.663 160.092  32.566  0.00  0.00    +0.089 C 
ATOM     16  C   UNL     1      48.406 158.946  31.893  0.00  0.00    +0.025 C 
ENDBRANCH   1  11
BRANCH   8  17
ATOM     17  N   UNL     1      51.312 153.461  28.913  0.00  0.00    -0.312 N 
ATOM     18  H   UNL     1      51.050 152.727  29.515  0.00  0.00    +0.152 HD
BRANCH  17  19
ATOM     19  C   UNL     1      52.022 153.200  27.710  0.00  0.00    +0.048 C 
ATOM     20  C   UNL     1      52.172 151.906  27.249  0.00  0.00    +0.015 C 
ATOM     21  C   UNL     1      52.860 151.668  26.087  0.00  0.00    +0.008 C 
ATOM     22  C   UNL     1      53.414 152.695  25.356  0.00  0.00    +0.076 C 
ATOM     23  C   UNL     1      53.266 153.975  25.815  0.00  0.00    +0.008 C 
ATOM     24  C   UNL     1      52.575 154.232  26.983  0.00  0.00    +0.015 C 
BRANCH  22  25
ATOM     25  C   UNL     1      54.148 152.451  24.121  0.00  0.00    +0.338 C 
ATOM     26  O   UNL     1      54.054 151.315  23.598  0.00  0.00    -0.245 OA
BRANCH  25  27
ATOM     27  O   UNL     1      54.929 153.422  23.523  0.00  0.00    -0.477 OA
ATOM     28  H   UNL     1      55.000 154.271  23.912  0.00  0.00    +0.295 HD
ENDBRANCH  25  27
ENDBRANCH  22  25
ENDBRANCH  17  19
ENDBRANCH   8  17
TORSDOF 5
