REMARK  Name = =
REMARK  8 active torsions:
REMARK  status: ('A' for Active; 'I' for Inactive)
REMARK    1  A    between atoms: C_1  and  C_29
REMARK    2  A    between atoms: C_2  and  C_33
REMARK    3  A    between atoms: C_7  and  O_38
REMARK    4  A    between atoms: C_10  and  C_12
REMARK    5  A    between atoms: C_13  and  O_19
REMARK    6  A    between atoms: O_19  and  C_20
REMARK    7  A    between atoms: C_21  and  O_27
REMARK    8  A    between atoms: C_24  and  O_26
REMARK                            x       y       z     vdW  Elec       q    Type
REMARK                         _______ _______ _______ _____ _____    ______ ____
ROOT
ATOM      1  C   UNL     1     -23.981 -42.587  25.333  0.00  0.00    +0.024 A 
ATOM      2  C   UNL     1     -23.517 -41.774  24.331  0.00  0.00    +0.082 A 
ATOM      3  N   UNL     1     -23.468 -40.516  24.835  0.00  0.00    -0.273 N 
ATOM      4  C   UNL     1     -23.898 -40.553  26.145  0.00  0.00    +0.067 A 
ATOM      5  C   UNL     1     -24.222 -41.839  26.483  0.00  0.00    +0.019 A 
ATOM      6  C   UNL     1     -24.680 -42.175  27.753  0.00  0.00    +0.038 C 
ATOM      7  C   UNL     1     -24.817 -41.197  28.710  0.00  0.00    +0.134 C 
ATOM      8  C   UNL     1     -24.507 -39.919  28.414  0.00  0.00    +0.038 C 
ATOM      9  C   UNL     1     -24.053 -39.612  27.141  0.00  0.00    +0.021 C 
ATOM     10  C   UNL     1     -22.988 -39.300  24.306  0.00  0.00    +0.268 C 
ATOM     11  O   UNL     1     -23.238 -38.195  24.976  0.00  0.00    -0.267 OA
ENDROOT
BRANCH  10  12
ATOM     12  C   UNL     1     -22.239 -38.992  23.131  0.00  0.00    +0.091 C 
ATOM     13  C   UNL     1     -22.876 -38.416  22.031  0.00  0.00    +0.151 C 
ATOM     14  C   UNL     1     -22.163 -38.033  20.917  0.00  0.00    +0.049 C 
ATOM     15  C   UNL     1     -20.788 -38.215  20.867  0.00  0.00    +0.061 C 
ATOM     16  C   UNL     1     -20.150 -38.780  21.942  0.00  0.00    +0.012 C 
ATOM     17  C   UNL     1     -20.887 -39.163  23.064  0.00  0.00    +0.009 C 
ATOM     18 CL   UNL     1     -19.873 -37.727  19.438  0.00  0.00    -0.082 Cl
BRANCH  13  19
ATOM     19  O   UNL     1     -24.249 -38.241  22.089  0.00  0.00    -0.450 OA
BRANCH  19  20
ATOM     20  C   UNL     1     -25.088 -38.116  21.005  0.00  0.00    +0.182 C 
ATOM     21  C   UNL     1     -25.848 -39.192  20.544  0.00  0.00    +0.169 C 
ATOM     22  C   UNL     1     -26.699 -39.100  19.462  0.00  0.00    +0.043 C 
ATOM     23  C   UNL     1     -26.811 -37.896  18.800  0.00  0.00    +0.040 C 
ATOM     24  C   UNL     1     -26.084 -36.810  19.219  0.00  0.00    +0.137 C 
ATOM     25  C   UNL     1     -25.244 -36.936  20.303  0.00  0.00    +0.077 C 
BRANCH  24  26
ATOM     26  O   UNL     1     -26.232 -35.618  18.520  0.00  0.00    -0.505 OA
ATOM     27  H   UNL     1     -26.814 -35.574  17.787  0.00  0.00    +0.292 HD
ENDBRANCH  24  26
BRANCH  21  28
ATOM     28  O   UNL     1     -25.758 -40.416  21.188  0.00  0.00    -0.503 OA
ATOM     29  H   UNL     1     -25.190 -40.516  21.927  0.00  0.00    +0.292 HD
ENDBRANCH  21  28
ENDBRANCH  19  20
ENDBRANCH  13  19
ENDBRANCH  10  12
BRANCH   1  31
ATOM     30  O   UNL     1     -24.084 -44.746  26.421  0.00  0.00    -0.352 OA
ATOM     31  C   UNL     1     -24.323 -44.017  25.256  0.00  0.00    +0.139 C 
ATOM     32  C   UNL     1     -25.764 -44.266  25.044  0.00  0.00    +0.037 C 
ATOM     33  C   UNL     1     -26.035 -45.476  25.573  0.00  0.00    +0.035 C 
ATOM     34  C   UNL     1     -24.738 -45.971  26.118  0.00  0.00    +0.143 C 
ENDBRANCH   1  31
BRANCH   2  35
ATOM     35  C   UNL     1     -23.055 -42.181  22.975  0.00  0.00    +0.117 C 
ATOM     36  N   UNL     1     -23.732 -42.163  21.901  0.00  0.00    -0.086 NA
ATOM     37  O   UNL     1     -23.018 -42.597  20.799  0.00  0.00    -0.377 OA
ATOM     38  C   UNL     1     -21.655 -42.201  21.081  0.00  0.00    +0.245 C 
ATOM     39  C   UNL     1     -21.693 -42.615  22.583  0.00  0.00    +0.101 C 
ENDBRANCH   2  35
BRANCH   7  40
ATOM     40  O   UNL     1     -25.267 -41.516  29.969  0.00  0.00    -0.506 OA
ATOM     41  H   UNL     1     -25.483 -42.403  30.178  0.00  0.00    +0.292 HD
ENDBRANCH   7  40
TORSDOF 8
