REMARK  Name = =
REMARK  0 active torsions:
REMARK  status: ('A' for Active; 'I' for Inactive)
REMARK                            x       y       z     vdW  Elec       q    Type
REMARK                         _______ _______ _______ _____ _____    ______ ____
ROOT
ATOM      1  N   UNL     1      52.904 156.633  27.606  0.00  0.00    -0.222 NA
ATOM      2  C   UNL     1      53.169 156.189  26.379  0.00  0.00    +0.199 C 
ATOM      3  N   UNL     1      52.701 155.001  26.004  0.00  0.00    -0.222 NA
ATOM      4  C   UNL     1      51.954 154.217  26.839  0.00  0.00    +0.102 C 
ATOM      5  C   UNL     1      51.689 154.688  28.098  0.00  0.00    +0.041 C 
ATOM      6  C   UNL     1      52.164 155.910  28.496  0.00  0.00    +0.102 C 
ENDROOT
TORSDOF 0
