REMARK  Name = =
REMARK  1 active torsions:
REMARK  status: ('A' for Active; 'I' for Inactive)
REMARK    1  A    between atoms: C_1  and  C_16
REMARK                            x       y       z     vdW  Elec       q    Type
REMARK                         _______ _______ _______ _____ _____    ______ ____
ROOT
ATOM      1  C   UNL     1      51.921 156.435  28.538  0.00  0.00    +0.018 C 
ATOM      2  C   UNL     1      52.654 156.734  27.403  0.00  0.00    +0.001 C 
ATOM      3  C   UNL     1      53.189 155.766  26.578  0.00  0.00    +0.000 C 
ATOM      4  C   UNL     1      52.991 154.435  26.891  0.00  0.00    +0.000 C 
ATOM      5  C   UNL     1      52.265 154.109  28.018  0.00  0.00    +0.000 C 
ATOM      6  C   UNL     1      51.739 155.105  28.826  0.00  0.00    +0.001 C 
ATOM      7  C   UNL     1      53.532 153.483  26.058  0.00  0.00    +0.000 C 
ATOM      8  C   UNL     1      54.255 153.840  24.937  0.00  0.00    +0.000 C 
ATOM      9  C   UNL     1      54.461 155.164  24.613  0.00  0.00    +0.000 C 
ATOM     10  C   UNL     1      53.920 156.120  25.446  0.00  0.00    +0.000 C 
ENDROOT
BRANCH   1  16
ATOM     11  N   UNL     1      52.095 158.657  29.545  0.00  0.00    -0.224 NA
ATOM     12  C   UNL     1      51.648 159.682  30.271  0.00  0.00    +0.199 C 
ATOM     13  N   UNL     1      50.428 159.563  30.820  0.00  0.00    -0.222 NA
ATOM     14  C   UNL     1      49.661 158.488  30.672  0.00  0.00    +0.102 C 
ATOM     15  C   UNL     1      50.161 157.437  29.907  0.00  0.00    +0.040 C 
ATOM     16  C   UNL     1      51.403 157.531  29.335  0.00  0.00    +0.085 C 
ENDBRANCH   1  16
TORSDOF 1
