REMARK  Name = =
REMARK  2 active torsions:
REMARK  status: ('A' for Active; 'I' for Inactive)
REMARK    1  A    between atoms: C_1  and  C_16
REMARK    2  A    between atoms: C_10  and  C_17
REMARK                            x       y       z     vdW  Elec       q    Type
REMARK                         _______ _______ _______ _____ _____    ______ ____
ROOT
ATOM      1  C   UNL     1      53.237 157.265  28.550  0.00  0.00    +0.018 C 
ATOM      2  C   UNL     1      52.302 158.075  29.152  0.00  0.00    +0.001 C 
ATOM      3  C   UNL     1      52.680 159.239  29.829  0.00  0.00    +0.001 C 
ATOM      4  C   UNL     1      54.049 159.554  29.872  0.00  0.00    -0.000 C 
ATOM      5  C   UNL     1      54.998 158.752  29.273  0.00  0.00    +0.000 C 
ATOM      6  C   UNL     1      54.575 157.626  28.625  0.00  0.00    +0.001 C 
ATOM      7  C   UNL     1      54.432 160.704  30.536  0.00  0.00    -0.000 C 
ATOM      8  C   UNL     1      53.478 161.497  31.127  0.00  0.00    -0.000 C 
ATOM      9  C   UNL     1      52.136 161.165  31.071  0.00  0.00    +0.001 C 
ATOM     10  C   UNL     1      51.717 160.003  30.405  0.00  0.00    +0.034 C 
ENDROOT
BRANCH   1  16
ATOM     11  N   UNL     1      53.636 155.575  26.862  0.00  0.00    -0.224 NA
ATOM     12  C   UNL     1      53.371 154.482  26.149  0.00  0.00    +0.199 C 
ATOM     13  N   UNL     1      52.243 153.786  26.389  0.00  0.00    -0.222 NA
ATOM     14  C   UNL     1      51.401 154.203  27.343  0.00  0.00    +0.102 C 
ATOM     15  C   UNL     1      51.686 155.355  28.089  0.00  0.00    +0.040 C 
ATOM     16  C   UNL     1      52.821 156.058  27.850  0.00  0.00    +0.085 C 
ENDBRANCH   1  16
BRANCH  10  17
ATOM     17  C   UNL     1      50.287 159.737  30.411  0.00  0.00    +0.260 C 
ATOM     18  O   UNL     1      49.844 159.356  31.710  0.00  0.00    -0.324 OA
ATOM     19  C   UNL     1      48.472 159.252  31.478  0.00  0.00    +0.177 C 
ATOM     20  C   UNL     1      48.217 160.325  30.444  0.00  0.00    +0.177 C 
ATOM     21  O   UNL     1      49.503 160.876  30.231  0.00  0.00    -0.324 OA
ENDBRANCH  10  17
TORSDOF 2
