REMARK  Name = =
REMARK  0 active torsions:
REMARK  status: ('A' for Active; 'I' for Inactive)
REMARK                            x       y       z     vdW  Elec       q    Type
REMARK                         _______ _______ _______ _____ _____    ______ ____
ROOT
ATOM      1  O   UNL     1     -12.895 -42.485  27.965  0.00  0.00    -0.445 OA
ATOM      2  C   UNL     1     -13.309 -43.561  27.107  0.00  0.00    +0.213 C 
ATOM      3  C   UNL     1     -13.104 -44.836  27.885  0.00  0.00    +0.074 C 
ATOM      4  C   UNL     1     -11.684 -44.928  28.247  0.00  0.00    -0.016 C 
ATOM      5  C   UNL     1     -10.976 -43.844  28.445  0.00  0.00    +0.077 C 
ATOM      6  C   UNL     1     -11.551 -42.501  28.315  0.00  0.00    +0.341 C 
ATOM      7  O   UNL     1     -10.835 -41.502  28.518  0.00  0.00    -0.245 OA
ENDROOT
TORSDOF 0
