REMARK  Name = =
REMARK  0 active torsions:
REMARK  status: ('A' for Active; 'I' for Inactive)
REMARK                            x       y       z     vdW  Elec       q    Type
REMARK                         _______ _______ _______ _____ _____    ______ ____
ROOT
ATOM      1  C   UNL     1      -3.785  -3.826  30.870  0.00  0.00    +0.000 C 
ATOM      2  C   UNL     1      -3.478  -5.258  30.709  0.00  0.00    +0.000 C 
ATOM      3  C   UNL     1      -3.122  -5.929  32.035  0.00  0.00    +0.000 C 
ATOM      4  C   UNL     1      -4.389  -5.763  32.878  0.00  0.00    +0.000 C 
ATOM      5  C   UNL     1      -4.369  -4.310  33.276  0.00  0.00    +0.000 C 
ATOM      6  C   UNL     1      -4.463  -3.404  32.113  0.00  0.00    +0.000 C 
ENDROOT
TORSDOF 0
