REMARK  Name = =
REMARK  3 active torsions:
REMARK  status: ('A' for Active; 'I' for Inactive)
REMARK    1  A    between atoms: C_1  and  S_7
REMARK    2  A    between atoms: S_7  and  S_8
REMARK    3  A    between atoms: S_7  and  S_9
REMARK                            x       y       z     vdW  Elec       q    Type
REMARK                         _______ _______ _______ _____ _____    ______ ____
ROOT
ATOM      1  C   UNL     1      -3.057  -3.803  31.418  0.00  0.00    +0.045 C 
ATOM      2  C   UNL     1      -3.117  -5.297  31.071  0.00  0.00    +0.011 C 
ATOM      3  C   UNL     1      -3.126  -6.024  32.407  0.00  0.00    +0.001 C 
ATOM      4  C   UNL     1      -4.416  -5.689  33.091  0.00  0.00    +0.000 C 
ATOM      5  C   UNL     1      -4.576  -4.192  33.274  0.00  0.00    +0.001 C 
ATOM      6  C   UNL     1      -4.417  -3.445  31.962  0.00  0.00    +0.011 C 
ENDROOT
BRANCH   1   7
ATOM      7  S   UNL     1      -2.508  -2.920  30.113  0.00  0.00    -0.152 S 
ATOM      8  H   UNL     1      -2.957  -1.657  30.343  0.00  0.00    +0.104 HD
BRANCH   7   9
ATOM      9  S   UNL     1      -0.847  -3.247  29.904  0.00  0.00    -0.123 S 
ATOM     10  H   UNL     1      -0.671  -4.578  29.690  0.00  0.00    +0.113 HD
ENDBRANCH   7   9
BRANCH   7  11
ATOM     11  S   UNL     1      -2.897  -3.638  28.671  0.00  0.00    -0.123 S 
ATOM     12  H   UNL     1      -2.362  -4.888  28.628  0.00  0.00    +0.113 HD
ENDBRANCH   7  11
ENDBRANCH   1   7
TORSDOF 3
