REMARK  Name = =
REMARK  4 active torsions:
REMARK  status: ('A' for Active; 'I' for Inactive)
REMARK    1  A    between atoms: C_1  and  S_15
REMARK    2  A    between atoms: C_3  and  S_7
REMARK    3  A    between atoms: S_15  and  S_16
REMARK    4  A    between atoms: S_15  and  S_17
REMARK                            x       y       z     vdW  Elec       q    Type
REMARK                         _______ _______ _______ _____ _____    ______ ____
ROOT
ATOM      1  C   UNL     1     -14.370  -8.863  22.119  0.00  0.00    +0.046 C 
ATOM      2  C   UNL     1     -14.899 -10.184  22.583  0.00  0.00    +0.020 C 
ATOM      3  C   UNL     1     -15.631 -10.953  21.527  0.00  0.00    +0.031 C 
ATOM      4  C   UNL     1     -14.662 -11.174  20.393  0.00  0.00    +0.009 C 
ATOM      5  C   UNL     1     -14.373  -9.833  19.793  0.00  0.00    +0.002 C 
ATOM      6  C   UNL     1     -13.787  -8.852  20.763  0.00  0.00    +0.011 C 
ENDROOT
BRANCH   3   7
ATOM      7  S   UNL     1     -16.131 -12.476  22.249  0.00  0.00    -0.210 S 
ATOM      8  C   UNL     1     -17.733 -12.350  23.200  0.00  0.00    +0.114 C 
ATOM      9  N   UNL     1     -17.375 -13.463  24.103  0.00  0.00    -0.272 N 
ATOM     10  C   UNL     1     -16.081 -13.308  24.633  0.00  0.00    +0.104 C 
ATOM     11  C   UNL     1     -15.188 -12.793  23.846  0.00  0.00    +0.060 C 
ATOM     12  C   UNL     1     -18.653 -14.098  23.888  0.00  0.00    +0.229 C 
ATOM     13  O   UNL     1     -19.383 -14.924  24.453  0.00  0.00    -0.275 OA
ATOM     14  C   UNL     1     -18.747 -13.314  22.634  0.00  0.00    +0.115 C 
ATOM     15  H   UNL     1     -16.050 -13.329  21.193  0.00  0.00    +0.085 HD
ENDBRANCH   3   7
BRANCH   1  16
ATOM     16  S   UNL     1     -15.628  -7.669  22.351  0.00  0.00    -0.152 S 
ATOM     17  H   UNL     1     -16.281  -7.548  21.164  0.00  0.00    +0.104 HD
BRANCH  16  18
ATOM     18  S   UNL     1     -16.745  -7.962  23.562  0.00  0.00    -0.123 S 
ATOM     19  H   UNL     1     -16.100  -8.085  24.753  0.00  0.00    +0.113 HD
ENDBRANCH  16  18
BRANCH  16  20
ATOM     20  S   UNL     1     -14.787  -6.413  23.050  0.00  0.00    -0.123 S 
ATOM     21  H   UNL     1     -14.243  -6.830  24.224  0.00  0.00    +0.113 HD
ENDBRANCH  16  20
ENDBRANCH   1  16
TORSDOF 4
