REMARK  Name = =
REMARK  7 active torsions:
REMARK  status: ('A' for Active; 'I' for Inactive)
REMARK    1  A    between atoms: C_1  and  S_25
REMARK    2  A    between atoms: C_3  and  S_7
REMARK    3  A    between atoms: C_3  and  N_15
REMARK    4  A    between atoms: C_16  and  C_18
REMARK    5  A    between atoms: C_23  and  O_24
REMARK    6  A    between atoms: S_25  and  S_26
REMARK    7  A    between atoms: S_25  and  S_27
REMARK                            x       y       z     vdW  Elec       q    Type
REMARK                         _______ _______ _______ _____ _____    ______ ____
ROOT
ATOM      1  C   UNL     1     -14.545 -10.590  18.843  0.00  0.00    +0.048 C 
ATOM      2  C   UNL     1     -15.057 -11.384  20.045  0.00  0.00    +0.037 C 
ATOM      3  C   UNL     1     -15.113 -10.511  21.245  0.00  0.00    +0.082 C 
ATOM      4  C   UNL     1     -16.167  -9.456  21.017  0.00  0.00    +0.027 C 
ATOM      5  C   UNL     1     -16.543  -9.353  19.550  0.00  0.00    +0.003 C 
ATOM      6  C   UNL     1     -15.305  -9.272  18.721  0.00  0.00    +0.011 C 
ENDROOT
BRANCH   3   7
ATOM      7  S   UNL     1     -15.651 -11.483  22.603  0.00  0.00    -0.198 S 
ATOM      8  C   UNL     1     -15.019 -13.006  23.019  0.00  0.00    +0.114 C 
ATOM      9  N   UNL     1     -16.214 -13.741  23.462  0.00  0.00    -0.241 NA
ATOM     10  C   UNL     1     -17.403 -13.244  22.948  0.00  0.00    +0.085 C 
ATOM     11  C   UNL     1     -17.381 -12.053  22.428  0.00  0.00    +0.057 C 
ATOM     12  C   UNL     1     -15.324 -14.547  24.186  0.00  0.00    +0.196 C 
ATOM     13  O   UNL     1     -15.186 -15.749  24.527  0.00  0.00    -0.207 OA
ATOM     14  C   UNL     1     -14.537 -13.274  24.406  0.00  0.00    +0.076 C 
ATOM     15  H   UNL     1     -15.266 -10.541  23.505  0.00  0.00    +0.087 HD
ENDBRANCH   3   7
BRANCH   3  16
ATOM     16  N   UNL     1     -13.855  -9.856  21.502  0.00  0.00    -0.296 N 
ATOM     17  C   UNL     1     -13.641  -8.873  22.466  0.00  0.00    +0.267 C 
ATOM     18  O   UNL     1     -14.692  -8.577  23.141  0.00  0.00    -0.268 OA
ATOM     19  H   UNL     1     -13.084 -10.125  20.952  0.00  0.00    +0.150 HD
BRANCH  17  20
ATOM     20  C   UNL     1     -12.412  -8.170  22.785  0.00  0.00    +0.168 C 
ATOM     21  N   UNL     1     -11.276  -8.544  22.114  0.00  0.00    -0.236 NA
ATOM     22  C   UNL     1     -10.081  -8.011  22.284  0.00  0.00    +0.099 C 
ATOM     23  C   UNL     1      -9.950  -6.989  23.210  0.00  0.00    +0.024 C 
ATOM     24  C   UNL     1     -11.047  -6.568  23.913  0.00  0.00    +0.040 C 
ATOM     25  C   UNL     1     -12.279  -7.173  23.687  0.00  0.00    +0.156 C 
BRANCH  25  26
ATOM     26  O   UNL     1     -13.385  -6.734  24.409  0.00  0.00    -0.504 OA
ATOM     27  H   UNL     1     -14.223  -7.130  24.270  0.00  0.00    +0.292 HD
ENDBRANCH  25  26
ENDBRANCH  17  20
ENDBRANCH   3  16
BRANCH   1  28
ATOM     28  S   UNL     1     -14.719 -11.455  17.354  0.00  0.00    -0.152 S 
ATOM     29  H   UNL     1     -14.279 -10.583  16.408  0.00  0.00    +0.104 HD
BRANCH  28  30
ATOM     30  S   UNL     1     -13.955 -12.867  17.641  0.00  0.00    -0.123 S 
ATOM     31  H   UNL     1     -14.602 -13.540  18.630  0.00  0.00    +0.113 HD
ENDBRANCH  28  30
BRANCH  28  32
ATOM     32  S   UNL     1     -16.187 -11.928  16.824  0.00  0.00    -0.123 S 
ATOM     33  H   UNL     1     -16.724 -12.813  17.706  0.00  0.00    +0.113 HD
ENDBRANCH  28  32
ENDBRANCH   1  28
TORSDOF 7
