REMARK  Name = =
REMARK  7 active torsions:
REMARK  status: ('A' for Active; 'I' for Inactive)
REMARK    1  A    between atoms: N_1  and  S_2
REMARK    2  A    between atoms: N_1  and  N_7
REMARK    3  A    between atoms: N_1  and  C_11
REMARK    4  A    between atoms: S_2  and  N_5
REMARK    5  A    between atoms: N_7  and  C_8
REMARK    6  A    between atoms: C_8  and  N_10
REMARK    7  A    between atoms: C_12  and  N_13
REMARK                            x       y       z     vdW  Elec       q    Type
REMARK                         _______ _______ _______ _____ _____    ______ ____
ROOT
ATOM      1  N   UNL     1      -1.719  -6.389  31.603  0.00  0.00    -0.097 N 
ENDROOT
BRANCH   1   2
ATOM      2  S   UNL     1      -0.656  -7.605  32.199  0.00  0.00    +0.203 S 
ATOM      3  O   UNL     1      -0.977  -7.975  33.618  0.00  0.00    -0.127 OA
ATOM      4  O   UNL     1      -0.826  -8.846  31.374  0.00  0.00    -0.127 OA
BRANCH   2   5
ATOM      5  N   UNL     1       0.949  -7.037  32.043  0.00  0.00    +0.116 NA
ATOM      6  O   UNL     1       1.595  -6.666  32.982  0.00  0.00    -0.121 OA
ENDBRANCH   2   5
ENDBRANCH   1   2
BRANCH   1   7
ATOM      7  N   UNL     1      -2.509  -5.586  32.406  0.00  0.00    -0.224 N 
ATOM      8  H   UNL     1      -2.104  -4.854  32.925  0.00  0.00    +0.174 HD
BRANCH   7   9
ATOM      9  C   UNL     1      -3.906  -5.822  32.479  0.00  0.00    +0.146 C 
ATOM     10  S   UNL     1      -4.434  -7.360  32.561  0.00  0.00    -0.018 S 
BRANCH   9  11
ATOM     11  N   UNL     1      -4.827  -4.737  32.480  0.00  0.00    -0.339 N 
ATOM     12  H   UNL     1      -4.497  -3.811  32.430  0.00  0.00    +0.144 HD
ATOM     13  H   UNL     1      -5.794  -4.913  32.531  0.00  0.00    +0.144 HD
ENDBRANCH   9  11
ENDBRANCH   7   9
ENDBRANCH   1   7
BRANCH   1  14
ATOM     14  C   UNL     1      -1.775  -6.213  30.184  0.00  0.00    +0.123 C 
ATOM     15  C   UNL     1      -0.712  -5.866  29.485  0.00  0.00    +0.084 C 
BRANCH  15  16
ATOM     16  N   UNL     1      -0.796  -5.698  28.078  0.00  0.00    -0.275 N 
ATOM     17  C   UNL     1      -0.016  -6.555  27.251  0.00  0.00    +0.304 C 
ATOM     18  O   UNL     1       0.733  -7.443  27.754  0.00  0.00    -0.265 OA
ATOM     19  H   UNL     1      -1.378  -5.008  27.685  0.00  0.00    +0.155 HD
ENDBRANCH  15  16
ENDBRANCH   1  14
TORSDOF 7
