REMARK  Name = =
REMARK  5 active torsions:
REMARK  status: ('A' for Active; 'I' for Inactive)
REMARK    1  A    between atoms: C_1  and  C_30
REMARK    2  A    between atoms: C_3  and  C_22
REMARK    3  A    between atoms: C_9  and  N_11
REMARK    4  A    between atoms: S_28  and  C_30
REMARK    5  A    between atoms: S_28  and  N_38
REMARK                            x       y       z     vdW  Elec       q    Type
REMARK                         _______ _______ _______ _____ _____    ______ ____
ROOT
ATOM      1  C   UNL     1     -19.952 -40.315  24.194  0.00  0.00    +0.072 C 
ATOM      2  N   UNL     1     -21.107 -40.251  24.842  0.00  0.00    -0.249 NA
ATOM      3  C   UNL     1     -21.350 -40.739  26.069  0.00  0.00    +0.077 C 
ATOM      4  C   UNL     1     -20.324 -41.358  26.714  0.00  0.00    +0.019 C 
ATOM      5  C   UNL     1     -19.069 -41.479  26.121  0.00  0.00    +0.004 C 
ATOM      6  C   UNL     1     -18.902 -40.953  24.867  0.00  0.00    +0.015 C 
ATOM      7  C   UNL     1     -17.656 -41.072  24.273  0.00  0.00    +0.002 C 
ATOM      8  C   UNL     1     -16.601 -41.695  24.905  0.00  0.00    +0.015 C 
ATOM      9  C   UNL     1     -16.768 -42.221  26.162  0.00  0.00    +0.061 C 
ATOM     10  C   UNL     1     -18.008 -42.098  26.743  0.00  0.00    +0.015 C 
ENDROOT
BRANCH   9  11
ATOM     11  N   UNL     1     -15.704 -42.884  26.865  0.00  0.00    -0.201 N 
ATOM     12  C   UNL     1     -14.636 -43.611  26.301  0.00  0.00    +0.259 C 
ATOM     13  O   UNL     1     -14.393 -43.826  25.076  0.00  0.00    -0.269 OA
ATOM     14  C   UNL     1     -13.814 -44.102  27.400  0.00  0.00    +0.059 C 
ATOM     15  C   UNL     1     -14.337 -43.702  28.607  0.00  0.00    +0.059 C 
ATOM     16  C   UNL     1     -13.728 -44.048  29.816  0.00  0.00    +0.005 C 
ATOM     17  C   UNL     1     -12.576 -44.807  29.831  0.00  0.00    +0.000 C 
ATOM     18  C   UNL     1     -12.034 -45.217  28.630  0.00  0.00    +0.000 C 
ATOM     19  C   UNL     1     -12.648 -44.866  27.446  0.00  0.00    +0.005 C 
ATOM     20  C   UNL     1     -15.530 -42.933  28.272  0.00  0.00    +0.259 C 
ATOM     21  O   UNL     1     -16.286 -42.399  29.109  0.00  0.00    -0.269 OA
ENDBRANCH   9  11
BRANCH   3  22
ATOM     22  C   UNL     1     -22.677 -40.588  26.652  0.00  0.00    -0.009 C 
ATOM     23  C   UNL     1     -23.262 -41.458  27.438  0.00  0.00    -0.029 C 
ATOM     24  C   UNL     1     -24.597 -41.279  28.012  0.00  0.00    +0.026 C 
ATOM     25  C   UNL     1     -25.503 -40.336  27.305  0.00  0.00    +0.005 C 
ATOM     26  C   UNL     1     -24.904 -39.670  26.089  0.00  0.00    +0.005 C 
ATOM     27  C   UNL     1     -23.442 -39.331  26.325  0.00  0.00    +0.028 C 
ENDBRANCH   3  22
BRANCH   1  28
ATOM     28  C   UNL     1     -19.681 -39.808  22.891  0.00  0.00    +0.128 C 
BRANCH  28  29
ATOM     29  S   UNL     1     -20.686 -40.237  21.745  0.00  0.00    -0.014 S 
ATOM     30  O   UNL     1     -20.152 -41.600  21.395  0.00  0.00    -0.156 OA
ATOM     31  H   UNL     1     -21.996 -40.222  22.112  0.00  0.00    +0.133 HD
BRANCH  29  39
ATOM     32  N   UNL     1     -22.108 -37.596  18.996  0.00  0.00    -0.247 N 
ATOM     33  C   UNL     1     -23.487 -37.079  18.866  0.00  0.00    +0.169 C 
ATOM     34  N   UNL     1     -23.311 -35.803  18.189  0.00  0.00    -0.279 NA
ATOM     35  C   UNL     1     -22.310 -36.104  17.188  0.00  0.00    +0.092 C 
ATOM     36  C   UNL     1     -21.341 -37.001  17.972  0.00  0.00    +0.113 C 
ATOM     37  C   UNL     1     -21.774 -38.512  20.008  0.00  0.00    +0.324 C 
ATOM     38  O   UNL     1     -22.801 -38.851  20.785  0.00  0.00    -0.251 OA
ATOM     39  N   UNL     1     -20.607 -39.146  20.377  0.00  0.00    -0.154 N 
ATOM     40  C   UNL     1     -19.353 -39.019  19.796  0.00  0.00    +0.320 C 
ATOM     41  O   UNL     1     -18.971 -38.346  18.843  0.00  0.00    -0.264 OA
ATOM     42  H   UNL     1     -22.980 -35.087  18.836  0.00  0.00    +0.125 HD
ENDBRANCH  29  39
ENDBRANCH  28  29
ENDBRANCH   1  28
TORSDOF 5
