REMARK  Name = =
REMARK  0 active torsions:
REMARK  status: ('A' for Active; 'I' for Inactive)
REMARK                            x       y       z     vdW  Elec       q    Type
REMARK                         _______ _______ _______ _____ _____    ______ ____
ROOT
ATOM      1  C   UNL     1      51.773 155.445  28.390  0.00  0.00    +0.030 C 
ATOM      2  C   UNL     1      52.572 156.283  27.640  0.00  0.00    +0.141 C 
ATOM      3  C   UNL     1      53.162 155.862  26.454  0.00  0.00    +0.036 C 
ATOM      4  C   UNL     1      52.959 154.575  25.992  0.00  0.00    +0.037 C 
ATOM      5  C   UNL     1      52.161 153.728  26.733  0.00  0.00    +0.007 C 
ATOM      6  C   UNL     1      51.574 154.161  27.921  0.00  0.00    +0.003 C 
ATOM      7 BR   UNL     1      53.782 154.027  24.362  0.00  0.00    -0.049 Br
ATOM      8  F   UNL     1      52.802 157.569  28.061  0.00  0.00    -0.204 F 
ENDROOT
TORSDOF 0
