REMARK  Name = =
REMARK  4 active torsions:
REMARK  status: ('A' for Active; 'I' for Inactive)
REMARK    1  A    between atoms: C_1  and  P_11
REMARK    2  A    between atoms: C_2  and  C_3
REMARK    3  A    between atoms: P_11  and  O_13
REMARK    4  A    between atoms: P_11  and  O_14
REMARK                            x       y       z     vdW  Elec       q    Type
REMARK                         _______ _______ _______ _____ _____    ______ ____
ROOT
ATOM      1  C   UNL     1      52.094 154.308  27.756  0.00  0.00    +0.087 C 
ATOM      2  C   UNL     1      53.086 154.015  26.942  0.00  0.00    +0.010 C 
ENDROOT
BRANCH   2   3
ATOM      3  C   UNL     1      53.272 152.705  26.333  0.00  0.00    +0.028 C 
ATOM      4  C   UNL     1      54.365 152.467  25.508  0.00  0.00    +0.141 C 
ATOM      5  C   UNL     1      54.597 151.243  24.901  0.00  0.00    +0.036 C 
ATOM      6  C   UNL     1      53.720 150.220  25.113  0.00  0.00    +0.037 C 
ATOM      7  C   UNL     1      52.628 150.427  25.925  0.00  0.00    +0.007 C 
ATOM      8  C   UNL     1      52.405 151.664  26.533  0.00  0.00    +0.003 C 
ATOM      9 BR   UNL     1      53.970 148.513  24.315  0.00  0.00    -0.049 Br
ATOM     10  F   UNL     1      55.222 153.512  25.316  0.00  0.00    -0.204 F 
ENDBRANCH   2   3
BRANCH   1  11
ATOM     11  P   UNL     1      51.952 155.949  28.453  0.00  0.00    +0.360 P 
ATOM     12  O   UNL     1      53.072 156.075  29.487  0.00  0.00    -0.253 OA
BRANCH  11  13
ATOM     13  O   UNL     1      50.440 156.073  29.186  0.00  0.00    -0.321 OA
ATOM     14  H   UNL     1      50.339 155.365  29.841  0.00  0.00    +0.220 HD
ENDBRANCH  11  13
BRANCH  11  15
ATOM     15  O   UNL     1      52.206 157.140  27.304  0.00  0.00    -0.321 OA
ATOM     16  H   UNL     1      51.512 157.091  26.628  0.00  0.00    +0.220 HD
ENDBRANCH  11  15
ENDBRANCH   1  11
TORSDOF 4
