MODEL 1
REMARK VINA RESULT:   -11.220      0.000      0.000
REMARK INTER + INTRA:         -13.934
REMARK INTER:                 -14.171
REMARK INTRA:                   0.237
REMARK UNBOUND:                 0.237
REMARK  Name = =
REMARK  5 active torsions:
REMARK  status: ('A' for Active; 'I' for Inactive)
REMARK    1  A    between atoms: N_1  and  C_6
REMARK    2  A    between atoms: C_5  and  N_19
REMARK    3  A    between atoms: C_7  and  O_18
REMARK    4  A    between atoms: N_19  and  S_20
REMARK    5  A    between atoms: S_20  and  C_23
REMARK                            x       y       z     vdW  Elec       q    Type
REMARK                         _______ _______ _______ _____ _____    ______ ____
ROOT
ATOM      1  N   UNL     1      51.576 155.853  29.090  0.00  0.00    -0.275 N 
ATOM      2  C   UNL     1      51.146 154.602  29.660  0.00  0.00    +0.167 C 
ATOM      3  N   UNL     1      52.129 153.611  29.270  0.00  0.00    -0.278 NA
ATOM      4  C   UNL     1      53.204 154.309  28.622  0.00  0.00    +0.108 C 
ATOM      5  C   UNL     1      52.467 155.509  28.008  0.00  0.00    +0.167 C 
ATOM      6  H   UNL     1      51.711 152.939  28.627  0.00  0.00    +0.125 HD
ENDROOT
BRANCH   1   7
ATOM      7  C   UNL     1      51.190 157.140  29.522  0.00  0.00    +0.127 C 
ATOM      8  C   UNL     1      52.031 158.161  29.603  0.00  0.00    +0.190 C 
ATOM      9  C   UNL     1      51.628 159.489  30.049  0.00  0.00    +0.230 C 
ATOM     10  O   UNL     1      52.423 160.442  30.122  0.00  0.00    -0.283 OA
ATOM     11  C   UNL     1      50.231 159.757  30.440  0.00  0.00    +0.045 C 
ATOM     12  C   UNL     1      49.339 158.705  30.362  0.00  0.00    +0.043 C 
ATOM     13  C   UNL     1      48.017 158.941  30.727  0.00  0.00    +0.003 C 
ATOM     14  C   UNL     1      47.611 160.185  31.152  0.00  0.00    +0.000 C 
ATOM     15  C   UNL     1      48.516 161.242  31.228  0.00  0.00    +0.000 C 
ATOM     16  C   UNL     1      49.810 160.984  30.863  0.00  0.00    +0.003 C 
ATOM     17  C   UNL     1      49.789 157.398  29.911  0.00  0.00    +0.212 C 
ATOM     18  O   UNL     1      48.940 156.467  29.857  0.00  0.00    -0.285 OA
BRANCH   8  19
ATOM     19  O   UNL     1      53.363 157.984  29.251  0.00  0.00    -0.502 OA
ATOM     20  H   UNL     1      53.954 158.711  29.277  0.00  0.00    +0.292 HD
ENDBRANCH   8  19
ENDBRANCH   1   7
BRANCH   5  21
ATOM     21  N   UNL     1      51.770 155.008  26.853  0.00  0.00    -0.161 NA
ATOM     22  H   UNL     1      51.088 155.707  26.558  0.00  0.00    +0.151 HD
BRANCH  21  23
ATOM     23  S   UNL     1      52.807 154.668  25.535  0.00  0.00    +0.062 S 
ATOM     24  O   UNL     1      54.047 155.505  25.683  0.00  0.00    -0.153 OA
ATOM     25  O   UNL     1      52.114 155.147  24.279  0.00  0.00    -0.153 OA
BRANCH  23  26
ATOM     26  C   UNL     1      53.159 152.992  25.339  0.00  0.00    +0.122 C 
ATOM     27  C   UNL     1      54.088 152.595  24.369  0.00  0.00    +0.020 C 
ATOM     28  C   UNL     1      54.369 151.240  24.215  0.00  0.00    +0.001 C 
ATOM     29  C   UNL     1      53.759 150.285  24.985  0.00  0.00    +0.000 C 
ATOM     30  C   UNL     1      52.840 150.709  25.943  0.00  0.00    +0.001 C 
ATOM     31  C   UNL     1      52.548 152.036  26.112  0.00  0.00    +0.020 C 
ENDBRANCH  23  26
ENDBRANCH  21  23
ENDBRANCH   5  21
TORSDOF 5
ENDMDL
