REMARK  Name = =
REMARK  12 active torsions:
REMARK  status: ('A' for Active; 'I' for Inactive)
REMARK    1  A    between atoms: N_8  and  C_13
REMARK    2  A    between atoms: C_9  and  S_28
REMARK    3  A    between atoms: C_14  and  C_15
REMARK    4  A    between atoms: C_14  and  C_25
REMARK    5  A    between atoms: C_25  and  O_27
REMARK    6  A    between atoms: S_28  and  P_29
REMARK    7  A    between atoms: S_28  and  P_34
REMARK    8  A    between atoms: P_29  and  O_30
REMARK    9  A    between atoms: P_29  and  O_31
REMARK   10  A    between atoms: O_32  and  O_33
REMARK   11  A    between atoms: P_34  and  O_36
REMARK   12  A    between atoms: P_34  and  O_37
REMARK                            x       y       z     vdW  Elec       q    Type
REMARK                         _______ _______ _______ _____ _____    ______ ____
ROOT
ATOM      1  C   UNL     1      52.157 156.778  28.637  0.00  0.00    +0.064 C 
ATOM      2  C   UNL     1      51.401 157.533  29.550  0.00  0.00    +0.044 C 
ATOM      3  S   UNL     1      49.950 156.912  30.394  0.00  0.00    -0.111 S 
ATOM      4  C   UNL     1      50.449 155.401  31.225  0.00  0.00    +0.072 C 
ATOM      5  C   UNL     1      50.720 154.286  30.291  0.00  0.00    +0.098 C 
ATOM      6  C   UNL     1      50.927 154.578  28.889  0.00  0.00    +0.234 C 
ATOM      7  O   UNL     1      50.145 154.001  28.009  0.00  0.00    -0.274 OA
ATOM      8  N   UNL     1      51.857 155.421  28.163  0.00  0.00    -0.236 N 
ATOM      9  C   UNL     1      51.725 158.789  29.944  0.00  0.00    +0.029 C 
ATOM     10  C   UNL     1      52.898 159.320  29.376  0.00  0.00    +0.006 C 
ATOM     11  C   UNL     1      53.663 158.619  28.489  0.00  0.00    +0.002 C 
ATOM     12  C   UNL     1      53.276 157.334  28.123  0.00  0.00    +0.016 C 
ENDROOT
BRANCH   8  13
ATOM     13  C   UNL     1      52.559 154.998  27.060  0.00  0.00    +0.074 C 
ATOM     14  C   UNL     1      52.817 153.871  26.530  0.00  0.00    +0.068 C 
BRANCH  14  15
ATOM     15  C   UNL     1      53.657 153.843  25.231  0.00  0.00    +0.027 C 
ATOM     16  C   UNL     1      53.559 152.632  24.368  0.00  0.00    +0.004 C 
ATOM     17  C   UNL     1      54.894 151.954  24.607  0.00  0.00    +0.000 C 
ATOM     18  C   UNL     1      55.834 153.101  24.778  0.00  0.00    +0.001 C 
ATOM     19  C   UNL     1      55.050 154.266  25.339  0.00  0.00    +0.008 C 
ATOM     20  C   UNL     1      54.156 155.083  24.661  0.00  0.00    +0.012 C 
ATOM     21  C   UNL     1      53.477 156.059  24.010  0.00  0.00    +0.026 C 
ATOM     22  C   UNL     1      54.240 157.171  23.897  0.00  0.00    -0.031 C 
ATOM     23  C   UNL     1      55.520 156.889  24.528  0.00  0.00    -0.031 C 
ATOM     24  C   UNL     1      55.493 155.664  24.986  0.00  0.00    +0.023 C 
ENDBRANCH  14  15
BRANCH  14  25
ATOM     25  C   UNL     1      52.591 152.558  27.054  0.00  0.00    +0.335 C 
ATOM     26  O   UNL     1      52.938 152.190  28.188  0.00  0.00    -0.245 OA
BRANCH  25  27
ATOM     27  O   UNL     1      51.938 151.550  26.307  0.00  0.00    -0.477 OA
ATOM     28  H   UNL     1      51.638 151.731  25.438  0.00  0.00    +0.295 HD
ENDBRANCH  25  27
ENDBRANCH  14  25
ENDBRANCH   8  13
BRANCH   9  29
ATOM     29  S   UNL     1      50.783 159.722  31.053  0.00  0.00    -0.056 S 
ATOM     30  H   UNL     1      50.537 159.065  32.218  0.00  0.00    +0.106 HD
BRANCH  29  31
ATOM     31  P   UNL     1      51.782 161.191  31.572  0.00  0.00    +0.378 P 
ATOM     32  O   UNL     1      52.904 160.728  32.485  0.00  0.00    -0.247 OA
BRANCH  31  33
ATOM     33  O   UNL     1      50.783 162.254  32.409  0.00  0.00    -0.317 OA
ATOM     34  H   UNL     1      50.420 161.809  33.191  0.00  0.00    +0.221 HD
ENDBRANCH  31  33
BRANCH  31  35
ATOM     35  O   UNL     1      52.401 161.969  30.228  0.00  0.00    -0.317 OA
ATOM     36  H   UNL     1      51.672 162.257  29.657  0.00  0.00    +0.221 HD
ENDBRANCH  31  35
ENDBRANCH  29  31
BRANCH  29  37
ATOM     37  P   UNL     1      49.277 159.920  30.560  0.00  0.00    +0.227 P 
BRANCH  37  38
ATOM     38  O   UNL     1      48.127 159.088  30.966  0.00  0.00    -0.342 OA
ATOM     39  H   UNL     1      47.324 159.412  30.529  0.00  0.00    +0.218 HD
ENDBRANCH  37  38
BRANCH  37  40
ATOM     40  O   UNL     1      47.738 160.488  30.696  0.00  0.00    -0.342 OA
ATOM     41  H   UNL     1      47.222 160.211  29.923  0.00  0.00    +0.218 HD
ENDBRANCH  37  40
ENDBRANCH  29  37
ENDBRANCH   9  29
TORSDOF 11
REMARK  Name = =
REMARK  12 active torsions:
REMARK  status: ('A' for Active; 'I' for Inactive)
REMARK    1  A    between atoms: N_8  and  C_13
REMARK    2  A    between atoms: C_9  and  S_28
REMARK    3  A    between atoms: C_14  and  C_15
REMARK    4  A    between atoms: C_14  and  C_25
REMARK    5  A    between atoms: C_25  and  O_27
REMARK    6  A    between atoms: S_28  and  P_29
REMARK    7  A    between atoms: S_28  and  P_34
REMARK    8  A    between atoms: P_29  and  O_30
REMARK    9  A    between atoms: P_29  and  O_31
REMARK   10  A    between atoms: O_32  and  O_33
REMARK   11  A    between atoms: P_34  and  O_36
REMARK   12  A    between atoms: P_34  and  O_37
REMARK                            x       y       z     vdW  Elec       q    Type
REMARK                         _______ _______ _______ _____ _____    ______ ____
ROOT
ATOM      1  O   UNL     1      49.254 159.872  28.871  0.00  0.00    -0.253 OA
ATOM      2  H   UNL     1      48.458 160.113  28.372  0.00  0.00    +0.253 HD
ENDROOT
BRANCH   1   3
ATOM      3  O   UNL     1      49.873 161.229  29.619  0.00  0.00    -0.253 OA
ATOM      4  H   UNL     1      50.669 160.988  30.118  0.00  0.00    +0.253 HD
ENDBRANCH   1   3
TORSDOF 1
