REMARK  Name = =
REMARK  5 active torsions:
REMARK  status: ('A' for Active; 'I' for Inactive)
REMARK    1  A    between atoms: C_1  and  C_22
REMARK    2  A    between atoms: C_1  and  C_32
REMARK    3  A    between atoms: C_20  and  C_24
REMARK    4  A    between atoms: C_27  and  O_31
REMARK    5  A    between atoms: C_32  and  N_33
REMARK                            x       y       z     vdW  Elec       q    Type
REMARK                         _______ _______ _______ _____ _____    ______ ____
ROOT
ATOM      1  C   UNL     1      52.977 154.195  27.283  0.00  0.00    +0.105 C 
ATOM      2  C   UNL     1      53.205 153.012  26.420  0.00  0.00    -0.014 C 
ATOM      3  C   UNL     1      53.784 153.123  25.205  0.00  0.00    -0.022 C 
ATOM      4  C   UNL     1      53.954 151.937  24.457  0.00  0.00    +0.036 C 
ATOM      5  C   UNL     1      53.555 150.706  24.922  0.00  0.00    +0.176 C 
ATOM      6  C   UNL     1      52.974 150.663  26.168  0.00  0.00    +0.176 C 
ATOM      7  C   UNL     1      52.780 151.769  26.945  0.00  0.00    +0.036 C 
ATOM      8  O   UNL     1      52.632 149.334  26.482  0.00  0.00    -0.435 OA
ATOM      9  C   UNL     1      52.815 148.576  25.303  0.00  0.00    +0.429 C 
ATOM     10  O   UNL     1      53.590 149.408  24.429  0.00  0.00    -0.435 OA
ATOM     11  C   UNL     1      54.306 154.390  24.572  0.00  0.00    +0.029 C 
ATOM     12  C   UNL     1      54.380 155.490  25.603  0.00  0.00    +0.037 C 
ATOM     13  C   UNL     1      53.256 155.436  26.578  0.00  0.00    +0.046 C 
ATOM     14  C   UNL     1      52.108 156.007  25.763  0.00  0.00    +0.143 C 
ATOM     15  O   UNL     1      52.669 156.926  24.917  0.00  0.00    -0.354 OA
ATOM     16  C   UNL     1      54.029 156.827  24.900  0.00  0.00    +0.143 C 
ENDROOT
BRANCH   1  22
ATOM     17  N   UNL     1      51.175 155.252  28.721  0.00  0.00    -0.279 N 
ATOM     18  C   UNL     1      49.914 155.282  29.426  0.00  0.00    +0.094 C 
ATOM     19  C   UNL     1      49.436 156.687  29.163  0.00  0.00    +0.028 C 
ATOM     20  C   UNL     1      50.669 157.497  28.847  0.00  0.00    +0.044 C 
ATOM     21  C   UNL     1      51.812 156.492  28.985  0.00  0.00    +0.098 C 
ATOM     22  C   UNL     1      51.649 154.195  27.935  0.00  0.00    +0.230 C 
ATOM     23  O   UNL     1      50.839 153.207  27.822  0.00  0.00    -0.275 OA
BRANCH  20  24
ATOM     24  C   UNL     1      50.788 158.597  29.820  0.00  0.00    -0.020 C 
ATOM     25  C   UNL     1      49.764 158.969  30.656  0.00  0.00    +0.006 C 
ATOM     26  C   UNL     1      49.923 160.018  31.561  0.00  0.00    +0.068 C 
ATOM     27  C   UNL     1      51.113 160.700  31.630  0.00  0.00    +0.140 C 
ATOM     28  C   UNL     1      52.144 160.341  30.802  0.00  0.00    +0.037 C 
ATOM     29  C   UNL     1      51.968 159.294  29.908  0.00  0.00    -0.001 C 
ATOM     30 BR   UNL     1      48.507 160.534  32.720  0.00  0.00    -0.046 Br
BRANCH  27  31
ATOM     31  O   UNL     1      51.305 161.762  32.531  0.00  0.00    -0.505 OA
ATOM     32  H   UNL     1      50.611 162.021  33.105  0.00  0.00    +0.292 HD
ENDBRANCH  27  31
ENDBRANCH  20  24
ENDBRANCH   1  22
BRANCH   1  33
ATOM     33  C   UNL     1      53.997 154.026  28.410  0.00  0.00    +0.085 C 
BRANCH  33  34
ATOM     34  N   UNL     1      54.635 152.730  28.379  0.00  0.00    -0.270 NA
ATOM     35  C   UNL     1      55.432 152.474  29.568  0.00  0.00    +0.090 C 
ATOM     36  C   UNL     1      56.063 152.619  28.216  0.00  0.00    +0.090 C 
ENDBRANCH  33  34
ENDBRANCH   1  33
TORSDOF 5
