REMARK  Name = =
REMARK  0 active torsions:
REMARK  status: ('A' for Active; 'I' for Inactive)
REMARK                            x       y       z     vdW  Elec       q    Type
REMARK                         _______ _______ _______ _____ _____    ______ ____
ROOT
ATOM      1  C   UNL     1      51.953 157.020  29.461  0.00  0.00    +0.166 C 
ATOM      2  N   UNL     1      50.637 156.995  29.825  0.00  0.00    -0.227 NA
ATOM      3  C   UNL     1      50.033 158.110  30.261  0.00  0.00    +0.087 C 
ATOM      4  C   UNL     1      50.726 159.297  30.349  0.00  0.00    +0.071 C 
ATOM      5  C   UNL     1      50.093 160.432  30.798  0.00  0.00    +0.006 C 
ATOM      6  C   UNL     1      48.758 160.405  31.167  0.00  0.00    +0.000 C 
ATOM      7  C   UNL     1      48.040 159.230  31.089  0.00  0.00    +0.002 C 
ATOM      8  C   UNL     1      48.694 158.103  30.637  0.00  0.00    +0.019 C 
ATOM      9  C   UNL     1      52.056 159.265  29.966  0.00  0.00    +0.252 C 
ATOM     10  O   UNL     1      52.719 160.321  30.031  0.00  0.00    -0.270 OA
ATOM     11  N   UNL     1      52.657 158.155  29.533  0.00  0.00    -0.264 N 
ATOM     12  H   UNL     1      53.606 158.171  29.270  0.00  0.00    +0.157 HD
ENDROOT
TORSDOF 0
