REMARK  Name = =
REMARK  1 active torsions:
REMARK  status: ('A' for Active; 'I' for Inactive)
REMARK    1  A    between atoms: C_1  and  C_17
REMARK                            x       y       z     vdW  Elec       q    Type
REMARK                         _______ _______ _______ _____ _____    ______ ____
ROOT
ATOM      1  C   UNL     1      51.746 157.114  29.239  0.00  0.00    +0.129 A 
ATOM      2  N   UNL     1      50.440 157.139  29.589  0.00  0.00    -0.232 NA
ATOM      3  C   UNL     1      49.899 158.242  30.133  0.00  0.00    +0.087 A 
ATOM      4  C   UNL     1      50.642 159.391  30.359  0.00  0.00    +0.074 A 
ATOM      5  C   UNL     1      50.081 160.524  30.920  0.00  0.00    +0.006 C 
ATOM      6  C   UNL     1      48.750 160.557  31.279  0.00  0.00    +0.000 C 
ATOM      7  C   UNL     1      48.002 159.419  31.058  0.00  0.00    +0.002 C 
ATOM      8  C   UNL     1      48.559 158.295  30.503  0.00  0.00    +0.019 C 
ATOM      9  C   UNL     1      51.965 159.349  29.998  0.00  0.00    +0.260 A 
ATOM     10  O   UNL     1      52.680 160.387  30.191  0.00  0.00    -0.267 OA
ATOM     11  N   UNL     1      52.453 158.234  29.464  0.00  0.00    -0.309 N 
ATOM     12  H   UNL     1      53.405 158.228  29.214  0.00  0.00    +0.170 HD
ENDROOT
BRANCH   1  18
ATOM     13  S   UNL     1      52.773 156.187  26.885  0.00  0.00    -0.133 S 
ATOM     14  C   UNL     1      53.227 154.600  26.137  0.00  0.00    +0.058 C 
ATOM     15  C   UNL     1      52.540 153.441  26.816  0.00  0.00    +0.012 C 
ATOM     16  C   UNL     1      52.534 153.551  28.310  0.00  0.00    +0.002 C 
ATOM     17  C   UNL     1      51.620 154.678  28.777  0.00  0.00    +0.018 C 
ATOM     18  C   UNL     1      52.410 155.959  28.644  0.00  0.00    +0.104 C 
ENDBRANCH   1  18
TORSDOF 1
