MODEL 1
REMARK VINA RESULT:   -11.454      0.000      0.000
REMARK INTER + INTRA:         -11.454
REMARK INTER:                 -11.454
REMARK INTRA:                   0.000
REMARK UNBOUND:                 0.000
REMARK  Name = =
REMARK  0 active torsions:
REMARK  status: ('A' for Active; 'I' for Inactive)
REMARK                            x       y       z     vdW  Elec       q    Type
REMARK                         _______ _______ _______ _____ _____    ______ ____
ROOT
ATOM      1  C   UNL     1     -19.540 -41.841  24.357  0.00  0.00    +0.056 C 
ATOM      2  C   UNL     1     -19.321 -41.478  23.061  0.00  0.00    +0.134 C 
ATOM      3  N   UNL     1     -18.022 -41.272  22.628  0.00  0.00    -0.216 NA
ATOM      4  C   UNL     1     -16.939 -41.404  23.392  0.00  0.00    +0.137 C 
ATOM      5  C   UNL     1     -17.115 -41.764  24.691  0.00  0.00    +0.071 C 
ATOM      6  C   UNL     1     -18.407 -41.980  25.163  0.00  0.00    +0.009 C 
ATOM      7  C   UNL     1     -16.022 -41.913  25.530  0.00  0.00    +0.200 C 
ATOM      8  O   UNL     1     -16.213 -42.242  26.712  0.00  0.00    -0.286 OA
ATOM      9  C   UNL     1     -14.785 -41.680  24.982  0.00  0.00    +0.058 C 
ATOM     10  C   UNL     1     -14.627 -41.316  23.661  0.00  0.00    +0.066 C 
ATOM     11  N   UNL     1     -15.698 -41.178  22.872  0.00  0.00    -0.297 N 
ATOM     12  N   UNL     1     -20.344 -41.258  22.105  0.00  0.00    -0.279 N 
ATOM     13  C   UNL     1     -20.959 -42.378  21.457  0.00  0.00    +0.112 C 
ATOM     14  C   UNL     1     -20.861 -42.128  19.923  0.00  0.00    +0.110 C 
ATOM     15  N   UNL     1     -20.000 -40.973  19.673  0.00  0.00    -0.213 NA
ATOM     16  C   UNL     1     -20.719 -39.806  20.167  0.00  0.00    +0.125 C 
ATOM     17  C   UNL     1     -20.763 -39.949  21.686  0.00  0.00    +0.153 C 
ATOM     18  N   UNL     1     -21.937 -39.395  22.281  0.00  0.00    -0.252 NA
ATOM     19  C   UNL     1     -23.148 -39.981  21.778  0.00  0.00    +0.088 C 
ATOM     20  C   UNL     1     -23.890 -40.879  22.704  0.00  0.00    +0.080 C 
ATOM     21  C   UNL     1     -24.151 -40.079  23.946  0.00  0.00    -0.014 C 
ATOM     22  C   UNL     1     -23.161 -39.260  24.412  0.00  0.00    -0.009 C 
ATOM     23  C   UNL     1     -21.866 -39.205  23.693  0.00  0.00    +0.100 C 
ATOM     24  C   UNL     1     -23.365 -38.509  25.531  0.00  0.00    -0.003 C 
ATOM     25  C   UNL     1     -24.576 -38.555  26.227  0.00  0.00    -0.000 C 
ATOM     26  C   UNL     1     -25.540 -39.394  25.721  0.00  0.00    -0.000 C 
ATOM     27  C   UNL     1     -25.347 -40.165  24.580  0.00  0.00    -0.004 C 
ATOM     28  C   UNL     1     -20.843 -42.100  24.971  0.00  0.00    +0.204 C 
ATOM     29  O   UNL     1     -21.726 -41.050  24.645  0.00  0.00    -0.334 OA
ATOM     30  C   UNL     1     -22.762 -40.924  25.528  0.00  0.00    +0.145 C 
ATOM     31  C   UNL     1     -22.308 -40.225  26.812  0.00  0.00    +0.032 C 
ATOM     32  C   UNL     1     -20.844 -40.654  27.014  0.00  0.00    +0.007 C 
ATOM     33  C   UNL     1     -20.758 -42.054  26.509  0.00  0.00    +0.056 C 
ATOM     34  C   UNL     1     -22.348 -43.635  23.701  0.00  0.00    +0.201 A 
ATOM     35  N   UNL     1     -21.444 -43.386  24.694  0.00  0.00    -0.184 N 
ATOM     36  N   UNL     1     -21.268 -44.572  25.246  0.00  0.00    -0.040 NA
ATOM     37  N   UNL     1     -21.977 -45.500  24.679  0.00  0.00    -0.022 NA
ATOM     38  N   UNL     1     -22.664 -44.942  23.708  0.00  0.00    -0.102 NA
ATOM     39  S   UNL     1     -22.995 -42.416  22.585  0.00  0.00    -0.140 S 
ATOM     40  H   UNL     1     -15.592 -40.918  21.928  0.00  0.00    +0.154 HD
ATOM     41  H   UNL     1     -21.886 -42.049  21.887  0.00  0.00    +0.100 HD
ENDROOT
TORSDOF 0
ENDMDL
