REMARK  Name = =
REMARK  0 active torsions:
REMARK  status: ('A' for Active; 'I' for Inactive)
REMARK                            x       y       z     vdW  Elec       q    Type
REMARK                         _______ _______ _______ _____ _____    ______ ____
ROOT
ATOM      1  C   UNL     1      51.892 154.656  28.622  0.00  0.00    +0.002 C 
ATOM      2  C   UNL     1      52.567 155.231  27.552  0.00  0.00    +0.002 C 
ATOM      3  C   UNL     1      52.993 154.421  26.520  0.00  0.00    +0.019 C 
ATOM      4  C   UNL     1      52.743 153.057  26.571  0.00  0.00    +0.099 C 
ATOM      5  N   UNL     1      53.155 152.255  25.569  0.00  0.00    -0.241 NA
ATOM      6  C   UNL     1      52.923 150.916  25.591  0.00  0.00    +0.119 C 
ATOM      7  C   UNL     1      52.252 150.335  26.654  0.00  0.00    +0.119 C 
ATOM      8  N   UNL     1      51.837 151.124  27.658  0.00  0.00    -0.241 NA
ATOM      9  C   UNL     1      52.074 152.464  27.626  0.00  0.00    +0.099 C 
ATOM     10  C   UNL     1      51.658 153.294  28.645  0.00  0.00    +0.021 C 
ATOM     11  C   UNL     1      53.664 154.997  25.456  0.00  0.00    +0.002 C 
ATOM     12  C   UNL     1      53.898 156.366  25.437  0.00  0.00    +0.000 C 
ATOM     13  C   UNL     1      53.477 157.189  26.462  0.00  0.00    +0.000 C 
ATOM     14  C   UNL     1      52.811 156.596  27.511  0.00  0.00    +0.000 C 
ENDROOT
TORSDOF 0
