REMARK  Name = =
REMARK  5 active torsions:
REMARK  status: ('A' for Active; 'I' for Inactive)
REMARK    1  A    between atoms: C_1  and  C_15
REMARK    2  A    between atoms: C_11  and  N_34
REMARK    3  A    between atoms: C_15  and  O_30
REMARK    4  A    between atoms: O_30  and  C_31
REMARK    5  A    between atoms: C_31  and  O_33
REMARK                            x       y       z     vdW  Elec       q    Type
REMARK                         _______ _______ _______ _____ _____    ______ ____
ROOT
ATOM      1  C   UNL     1      52.451 157.005  28.218  0.00  0.00    +0.043 C 
ATOM      2  C   UNL     1      52.231 155.646  28.473  0.00  0.00    +0.004 C 
ATOM      3  C   UNL     1      52.598 154.655  27.582  0.00  0.00    +0.034 C 
ATOM      4  C   UNL     1      53.215 155.005  26.371  0.00  0.00    +0.100 C 
ATOM      5  N   UNL     1      53.576 154.036  25.493  0.00  0.00    -0.241 NA
ATOM      6  C   UNL     1      54.163 154.381  24.345  0.00  0.00    +0.119 C 
ATOM      7  C   UNL     1      54.389 155.709  24.079  0.00  0.00    +0.119 C 
ATOM      8  N   UNL     1      54.031 156.670  24.947  0.00  0.00    -0.241 NA
ATOM      9  C   UNL     1      53.443 156.325  26.099  0.00  0.00    +0.099 C 
ATOM     10  C   UNL     1      53.068 157.284  27.002  0.00  0.00    +0.022 C 
ATOM     11  C   UNL     1      52.384 153.320  27.843  0.00  0.00    +0.071 C 
ATOM     12  C   UNL     1      51.785 152.980  29.036  0.00  0.00    +0.017 C 
ATOM     13  C   UNL     1      51.411 153.962  29.944  0.00  0.00    +0.001 C 
ATOM     14  C   UNL     1      51.645 155.289  29.642  0.00  0.00    +0.000 C 
ENDROOT
BRANCH   1  15
ATOM     15  C   UNL     1      52.049 158.087  29.157  0.00  0.00    +0.258 C 
ATOM     16  O   UNL     1      51.748 159.192  28.353  0.00  0.00    -0.319 OA
ATOM     17  C   UNL     1      50.433 159.348  28.033  0.00  0.00    +0.178 C 
ATOM     18  C   UNL     1      49.747 159.749  29.352  0.00  0.00    +0.175 C 
ATOM     19  O   UNL     1      50.608 160.618  30.006  0.00  0.00    -0.326 OA
ATOM     20  C   UNL     1      50.110 160.784  31.296  0.00  0.00    +0.264 C 
ATOM     21  O   UNL     1      50.761 161.755  32.018  0.00  0.00    -0.321 OA
ATOM     22  C   UNL     1      49.820 162.292  32.926  0.00  0.00    +0.209 C 
ATOM     23  C   UNL     1      48.968 161.189  33.423  0.00  0.00    +0.183 C 
ATOM     24  O   UNL     1      47.846 161.407  33.803  0.00  0.00    -0.293 OA
ATOM     25  C   UNL     1      49.512 159.814  33.447  0.00  0.00    +0.102 C 
ATOM     26  C   UNL     1      50.034 159.491  32.068  0.00  0.00    +0.179 C 
ATOM     27  O   UNL     1      49.155 158.641  31.364  0.00  0.00    -0.350 OA
ATOM     28  C   UNL     1      49.712 158.456  30.117  0.00  0.00    +0.151 C 
ATOM     29  C   UNL     1      51.023 157.731  30.150  0.00  0.00    +0.107 C 
BRANCH  15  30
ATOM     30  O   UNL     1      53.206 158.550  29.891  0.00  0.00    -0.396 OA
BRANCH  30  31
ATOM     31  C   UNL     1      54.428 158.732  29.280  0.00  0.00    +0.510 C 
ATOM     32  O   UNL     1      54.612 158.200  28.155  0.00  0.00    -0.203 OA
BRANCH  31  33
ATOM     33  O   UNL     1      55.465 159.465  29.827  0.00  0.00    -0.450 OA
ATOM     34  H   UNL     1      56.274 159.552  29.362  0.00  0.00    +0.299 HD
ENDBRANCH  31  33
ENDBRANCH  30  31
ENDBRANCH  15  30
ENDBRANCH   1  15
BRANCH  11  35
ATOM     35  N   UNL     1      52.769 152.300  26.907  0.00  0.00    -0.216 N 
ATOM     36  N   UNL     1      53.957 152.031  26.401  0.00  0.00    -0.225 N 
ATOM     37  C   UNL     1      53.907 150.996  25.564  0.00  0.00    +0.263 C 
ATOM     38  O   UNL     1      54.850 150.464  24.903  0.00  0.00    -0.269 OA
ATOM     39  C   UNL     1      52.601 150.568  25.525  0.00  0.00    +0.077 C 
ATOM     40  C   UNL     1      51.914 151.409  26.379  0.00  0.00    +0.090 C 
ATOM     41  H   UNL     1      54.777 152.532  26.615  0.00  0.00    +0.174 HD
ENDBRANCH  11  35
TORSDOF 5
