MODEL 1
REMARK VINA RESULT:   -12.271      0.000      0.000
REMARK INTER + INTRA:         -15.586
REMARK INTER:                 -15.141
REMARK INTRA:                  -0.446
REMARK UNBOUND:                -0.446
REMARK  Name = =
REMARK  4 active torsions:
REMARK  status: ('A' for Active; 'I' for Inactive)
REMARK    1  A    between atoms: C_1  and  C_26
REMARK    2  A    between atoms: N_4  and  C_10
REMARK    3  A    between atoms: C_26  and  C_28
REMARK    4  A    between atoms: C_27  and  C_43
REMARK                            x       y       z     vdW  Elec       q    Type
REMARK                         _______ _______ _______ _____ _____    ______ ____
ROOT
ATOM      1  C   UNL     1     -21.729 -42.707  20.940  0.00  0.00    +0.079 C 
ATOM      2  N   UNL     1     -21.177 -42.152  22.035  0.00  0.00    -0.229 NA
ATOM      3  C   UNL     1     -20.429 -41.046  21.981  0.00  0.00    +0.158 C 
ATOM      4  N   UNL     1     -19.800 -40.352  22.933  0.00  0.00    -0.233 N 
ATOM      5  C   UNL     1     -19.163 -39.290  22.349  0.00  0.00    +0.173 C 
ATOM      6  N   UNL     1     -19.395 -39.320  21.023  0.00  0.00    -0.224 NA
ATOM      7  C   UNL     1     -20.175 -40.402  20.794  0.00  0.00    +0.115 C 
ATOM      8  C   UNL     1     -20.716 -40.929  19.662  0.00  0.00    +0.024 C 
ATOM      9  C   UNL     1     -21.501 -42.096  19.756  0.00  0.00    +0.020 C 
ENDROOT
BRANCH   4  10
ATOM     10  C   UNL     1     -19.737 -40.592  24.329  0.00  0.00    +0.062 C 
ATOM     11  C   UNL     1     -18.639 -41.145  24.965  0.00  0.00    +0.056 C 
ATOM     12  C   UNL     1     -18.611 -41.370  26.319  0.00  0.00    +0.043 C 
ATOM     13  C   UNL     1     -19.694 -41.046  27.098  0.00  0.00    +0.003 C 
ATOM     14  C   UNL     1     -20.807 -40.493  26.499  0.00  0.00    +0.001 C 
ATOM     15  C   UNL     1     -20.813 -40.274  25.128  0.00  0.00    +0.015 C 
ATOM     16  C   UNL     1     -17.441 -41.955  26.955  0.00  0.00    +0.196 C 
ATOM     17  O   UNL     1     -17.386 -42.173  28.202  0.00  0.00    -0.287 OA
ATOM     18  C   UNL     1     -16.250 -42.328  26.193  0.00  0.00    +0.042 C 
ATOM     19  C   UNL     1     -16.278 -42.101  24.835  0.00  0.00    +0.042 C 
ATOM     20  C   UNL     1     -15.171 -42.444  24.096  0.00  0.00    +0.003 C 
ATOM     21  C   UNL     1     -14.067 -43.005  24.730  0.00  0.00    +0.000 C 
ATOM     22  C   UNL     1     -14.052 -43.226  26.096  0.00  0.00    +0.000 C 
ATOM     23  C   UNL     1     -15.159 -42.882  26.823  0.00  0.00    +0.003 C 
ATOM     24  C   UNL     1     -17.457 -41.513  24.203  0.00  0.00    +0.197 C 
ATOM     25  O   UNL     1     -17.477 -41.306  22.947  0.00  0.00    -0.287 OA
ENDBRANCH   4  10
BRANCH   1  26
ATOM     26  C   UNL     1     -22.643 -43.915  21.076  0.00  0.00    +0.002 C 
ATOM     27  C   UNL     1     -23.010 -44.334  19.909  0.00  0.00    +0.007 C 
BRANCH  26  28
ATOM     28  C   UNL     1     -22.774 -44.408  22.374  0.00  0.00    +0.067 C 
ATOM     29  C   UNL     1     -22.614 -45.787  22.821  0.00  0.00    -0.018 C 
ATOM     30  C   UNL     1     -22.105 -46.097  24.092  0.00  0.00    -0.025 C 
ATOM     31  C   UNL     1     -22.042 -47.391  24.484  0.00  0.00    -0.005 C 
ATOM     32  C   UNL     1     -22.477 -48.433  23.652  0.00  0.00    -0.000 C 
ATOM     33  C   UNL     1     -22.976 -48.092  22.414  0.00  0.00    -0.000 C 
ATOM     34  C   UNL     1     -23.047 -46.770  21.993  0.00  0.00    -0.004 C 
ATOM     35  C   UNL     1     -21.722 -45.172  25.177  0.00  0.00    +0.031 C 
ATOM     36  C   UNL     1     -22.756 -44.183  25.542  0.00  0.00    +0.031 C 
ATOM     37  C   UNL     1     -23.869 -43.928  24.611  0.00  0.00    -0.025 C 
ATOM     38  C   UNL     1     -23.946 -43.966  23.233  0.00  0.00    -0.018 C 
ATOM     39  C   UNL     1     -25.084 -43.666  22.575  0.00  0.00    -0.004 C 
ATOM     40  C   UNL     1     -26.249 -43.299  23.259  0.00  0.00    -0.000 C 
ATOM     41  C   UNL     1     -26.196 -43.255  24.631  0.00  0.00    -0.000 C 
ATOM     42  C   UNL     1     -25.040 -43.560  25.288  0.00  0.00    -0.005 C 
ENDBRANCH  26  28
BRANCH  27  43
ATOM     43  C   UNL     1     -23.695 -45.507  19.486  0.00  0.00    +0.208 C 
ATOM     44  O   UNL     1     -23.285 -46.028  18.366  0.00  0.00    -0.215 OA
ENDBRANCH  27  43
ENDBRANCH   1  26
TORSDOF 4
ENDMDL
