REMARK  Name = =
REMARK  3 active torsions:
REMARK  status: ('A' for Active; 'I' for Inactive)
REMARK    1  A    between atoms: P_1  and  C_12
REMARK    2  A    between atoms: P_1  and  O_22
REMARK    3  A    between atoms: C_12  and  C_17
REMARK                            x       y       z     vdW  Elec       q    Type
REMARK                         _______ _______ _______ _____ _____    ______ ____
ROOT
ATOM      1  P   UNL     1      -9.629  -0.996  30.614  0.00  0.00    +0.358 P 
ATOM      2  O   UNL     1      -9.336  -2.172  31.443  0.00  0.00    -0.135 OA
ATOM      3  O   UNL     1     -10.963  -1.653  30.192  0.00  0.00    -0.288 OA
ATOM      4  C   UNL     1     -11.784  -1.030  29.306  0.00  0.00    +0.157 C 
ATOM      5  C   UNL     1     -11.705   0.449  29.212  0.00  0.00    +0.173 C 
ATOM      6  O   UNL     1     -13.014   0.936  29.238  0.00  0.00    -0.351 OA
ATOM      7  C   UNL     1     -13.693   0.133  30.153  0.00  0.00    +0.145 C 
ATOM      8  C   UNL     1     -13.201  -1.248  29.780  0.00  0.00    +0.065 C 
ATOM      9  C   UNL     1     -10.847   1.109  30.237  0.00  0.00    +0.184 C 
ATOM     10  O   UNL     1     -10.447   0.278  31.240  0.00  0.00    -0.286 OA
ENDROOT
BRANCH   1  12
ATOM     11  O   UNL     1      -7.503   0.384  29.964  0.00  0.00    -0.426 OA
ATOM     12  C   UNL     1      -8.178  -0.320  31.019  0.00  0.00    +0.318 C 
ATOM     13  C   UNL     1      -8.279   0.774  32.057  0.00  0.00    +0.041 C 
ATOM     14  C   UNL     1      -7.746   1.882  31.632  0.00  0.00    +0.082 C 
ATOM     15  C   UNL     1      -7.241   1.676  30.303  0.00  0.00    +0.342 C 
ATOM     16  O   UNL     1      -6.648   2.492  29.522  0.00  0.00    -0.245 OA
BRANCH  12  17
ATOM     17  C   UNL     1      -7.156  -1.241  31.585  0.00  0.00    +0.279 C 
ATOM     18  O   UNL     1      -6.482  -1.176  32.707  0.00  0.00    -0.412 OA
ATOM     19  C   UNL     1      -5.679  -2.204  32.813  0.00  0.00    +0.306 C 
ATOM     20  N   UNL     1      -5.818  -2.981  31.733  0.00  0.00    -0.102 NA
ATOM     21  N   UNL     1      -6.739  -2.364  30.986  0.00  0.00    -0.107 NA
ENDBRANCH  12  17
ENDBRANCH   1  12
BRANCH   1  22
ATOM     22  O   UNL     1      -9.192  -0.964  29.011  0.00  0.00    -0.318 OA
ATOM     23  H   UNL     1      -8.311  -0.568  28.924  0.00  0.00    +0.221 HD
ENDBRANCH   1  22
TORSDOF 3
