MODEL 1
REMARK VINA RESULT:    -8.187      0.000      0.000
REMARK INTER + INTRA:         -10.095
REMARK INTER:                  -9.623
REMARK INTRA:                  -0.473
REMARK UNBOUND:                -0.473
REMARK  Name = =
REMARK  3 active torsions:
REMARK  status: ('A' for Active; 'I' for Inactive)
REMARK    1  A    between atoms: C_1  and  N_11
REMARK    2  A    between atoms: C_9  and  O_18
REMARK    3  A    between atoms: O_18  and  N_19
REMARK                            x       y       z     vdW  Elec       q    Type
REMARK                         _______ _______ _______ _____ _____    ______ ____
ROOT
ATOM      1  C   UNL     1      53.949 161.661  41.832  0.00  0.00    +0.070 C 
ATOM      2  C   UNL     1      54.478 162.964  41.831  0.00  0.00    +0.095 C 
ATOM      3  N   UNL     1      53.705 164.032  42.137  0.00  0.00    -0.243 NA
ATOM      4  C   UNL     1      54.166 165.292  42.151  0.00  0.00    +0.099 C 
ATOM      5  C   UNL     1      55.476 165.575  41.848  0.00  0.00    +0.021 C 
ATOM      6  C   UNL     1      56.281 164.502  41.533  0.00  0.00    +0.003 C 
ATOM      7  C   UNL     1      55.799 163.189  41.520  0.00  0.00    +0.022 C 
ATOM      8  C   UNL     1      56.594 162.129  41.209  0.00  0.00    +0.042 C 
ATOM      9  C   UNL     1      56.153 160.826  41.186  0.00  0.00    +0.175 C 
ATOM     10  C   UNL     1      54.804 160.625  41.508  0.00  0.00    +0.056 C 
ENDROOT
BRANCH   1  11
ATOM     11  N   UNL     1      52.581 161.489  42.161  0.00  0.00    -0.297 N 
ATOM     12  N   UNL     1      52.407 159.162  42.862  0.00  0.00    -0.229 NA
ATOM     13  C   UNL     1      51.692 158.043  43.034  0.00  0.00    +0.100 C 
ATOM     14  C   UNL     1      50.362 158.002  42.699  0.00  0.00    +0.021 C 
ATOM     15  C   UNL     1      49.776 159.123  42.186  0.00  0.00    +0.004 C 
ATOM     16  C   UNL     1      50.531 160.261  42.019  0.00  0.00    +0.034 C 
ATOM     17  C   UNL     1      51.895 160.288  42.367  0.00  0.00    +0.132 C 
ATOM     18  H   UNL     1      52.051 162.312  42.256  0.00  0.00    +0.154 HD
ENDBRANCH   1  11
BRANCH   9  19
ATOM     19  O   UNL     1      56.922 159.736  40.879  0.00  0.00    -0.366 OA
BRANCH  19  20
ATOM     20  N   UNL     1      58.272 159.713  40.792  0.00  0.00    -0.102 N 
ATOM     21  C   UNL     1      58.853 159.761  39.578  0.00  0.00    +0.233 A 
ATOM     22  N   UNL     1      60.211 159.739  39.447  0.00  0.00    -0.196 NA
ATOM     23  C   UNL     1      61.021 159.671  40.510  0.00  0.00    +0.159 A 
ATOM     24  C   UNL     1      60.457 159.621  41.761  0.00  0.00    +0.173 A 
ATOM     25  C   UNL     1      59.080 159.645  41.865  0.00  0.00    +0.316 A 
ATOM     26  O   UNL     1      58.594 159.597  43.026  0.00  0.00    -0.262 OA
ATOM     27  N   UNL     1      61.484 159.560  42.622  0.00  0.00    -0.220 NA
ATOM     28  C   UNL     1      62.639 159.570  41.921  0.00  0.00    +0.165 C 
ATOM     29  N   UNL     1      62.357 159.639  40.610  0.00  0.00    -0.280 N 
ATOM     30  N   UNL     1      58.121 159.833  38.363  0.00  0.00    -0.326 N 
ATOM     31  H   UNL     1      63.004 159.662  39.868  0.00  0.00    +0.155 HD
ATOM     32  H   UNL     1      57.137 159.853  38.382  0.00  0.00    +0.145 HD
ATOM     33  H   UNL     1      58.598 159.864  37.503  0.00  0.00    +0.145 HD
ENDBRANCH  19  20
ENDBRANCH   9  19
TORSDOF 3
ENDMDL
