REMARK  Name = =
REMARK  3 active torsions:
REMARK  status: ('A' for Active; 'I' for Inactive)
REMARK    1  A    between atoms: C_1  and  N_11
REMARK    2  A    between atoms: C_9  and  O_18
REMARK    3  A    between atoms: O_18  and  N_19
REMARK                            x       y       z     vdW  Elec       q    Type
REMARK                         _______ _______ _______ _____ _____    ______ ____
ROOT
ATOM      1  C   UNL     1      52.270 156.175  27.606  0.00  0.00    +0.070 C 
ATOM      2  C   UNL     1      51.625 156.898  28.625  0.00  0.00    +0.095 C 
ATOM      3  N   UNL     1      51.529 158.247  28.573  0.00  0.00    -0.243 NA
ATOM      4  C   UNL     1      50.922 158.978  29.520  0.00  0.00    +0.099 C 
ATOM      5  C   UNL     1      50.352 158.385  30.621  0.00  0.00    +0.021 C 
ATOM      6  C   UNL     1      50.438 157.012  30.695  0.00  0.00    +0.003 C 
ATOM      7  C   UNL     1      51.071 156.252  29.706  0.00  0.00    +0.022 C 
ATOM      8  C   UNL     1      51.156 154.895  29.779  0.00  0.00    +0.042 C 
ATOM      9  C   UNL     1      51.770 154.117  28.825  0.00  0.00    +0.175 C 
ATOM     10  C   UNL     1      52.325 154.801  27.735  0.00  0.00    +0.056 C 
ENDROOT
BRANCH   1  11
ATOM     11  N   UNL     1      52.822 156.894  26.516  0.00  0.00    -0.297 N 
ATOM     12  N   UNL     1      53.711 155.176  25.036  0.00  0.00    -0.229 NA
ATOM     13  C   UNL     1      54.563 154.781  24.081  0.00  0.00    +0.100 C 
ATOM     14  C   UNL     1      55.472 155.659  23.545  0.00  0.00    +0.021 C 
ATOM     15  C   UNL     1      55.494 156.946  24.001  0.00  0.00    +0.004 C 
ATOM     16  C   UNL     1      54.608 157.328  24.982  0.00  0.00    +0.034 C 
ATOM     17  C   UNL     1      53.682 156.415  25.523  0.00  0.00    +0.132 C 
ATOM     18  H   UNL     1      52.570 157.843  26.450  0.00  0.00    +0.154 HD
ENDBRANCH   1  11
BRANCH   9  19
ATOM     19  O   UNL     1      51.875 152.753  28.864  0.00  0.00    -0.366 OA
BRANCH  19  20
ATOM     20  N   UNL     1      52.312 151.959  27.859  0.00  0.00    -0.102 N 
ATOM     21  C   UNL     1      53.343 152.371  27.098  0.00  0.00    +0.233 A 
ATOM     22  N   UNL     1      53.813 151.600  26.074  0.00  0.00    -0.196 NA
ATOM     23  C   UNL     1      53.276 150.410  25.784  0.00  0.00    +0.159 A 
ATOM     24  C   UNL     1      52.223 149.963  26.544  0.00  0.00    +0.173 A 
ATOM     25  C   UNL     1      51.767 150.763  27.574  0.00  0.00    +0.316 A 
ATOM     26  O   UNL     1      50.800 150.325  28.251  0.00  0.00    -0.262 OA
ATOM     27  N   UNL     1      51.892 148.765  26.040  0.00  0.00    -0.220 NA
ATOM     28  C   UNL     1      52.714 148.487  25.005  0.00  0.00    +0.165 C 
ATOM     29  N   UNL     1      53.575 149.505  24.842  0.00  0.00    -0.280 N 
ATOM     30  N   UNL     1      54.010 153.610  27.288  0.00  0.00    -0.326 N 
ATOM     31  H   UNL     1      54.286 149.573  24.164  0.00  0.00    +0.155 HD
ATOM     32  H   UNL     1      53.724 154.217  28.008  0.00  0.00    +0.145 HD
ATOM     33  H   UNL     1      54.758 153.862  26.700  0.00  0.00    +0.145 HD
ENDBRANCH  19  20
ENDBRANCH   9  19
TORSDOF 3
