REMARK  Name = =
REMARK  8 active torsions:
REMARK  status: ('A' for Active; 'I' for Inactive)
REMARK    1  A    between atoms: O_2  and  N_15
REMARK    2  A    between atoms: C_6  and  C_12
REMARK    3  A    between atoms: C_7  and  S_11
REMARK    4  A    between atoms: C_12  and  O_14
REMARK    5  A    between atoms: N_17  and  C_29
REMARK    6  A    between atoms: C_18  and  C_32
REMARK    7  A    between atoms: C_31  and  C_35
REMARK    8  A    between atoms: C_32  and  O_34
REMARK                            x       y       z     vdW  Elec       q    Type
REMARK                         _______ _______ _______ _____ _____    ______ ____
ROOT
ATOM      1  P   UNL     1      52.699 156.323  28.403  0.00  0.00    +0.000 P 
ENDROOT
TORSDOF 0
REMARK  Name = =
REMARK  8 active torsions:
REMARK  status: ('A' for Active; 'I' for Inactive)
REMARK    1  A    between atoms: O_2  and  N_15
REMARK    2  A    between atoms: C_6  and  C_12
REMARK    3  A    between atoms: C_7  and  S_11
REMARK    4  A    between atoms: C_12  and  O_14
REMARK    5  A    between atoms: N_17  and  C_29
REMARK    6  A    between atoms: C_18  and  C_32
REMARK    7  A    between atoms: C_31  and  C_35
REMARK    8  A    between atoms: C_32  and  O_34
REMARK                            x       y       z     vdW  Elec       q    Type
REMARK                         _______ _______ _______ _____ _____    ______ ____
ROOT
ATOM      1  N   UNL     1      51.576 156.937  27.244  0.00  0.00    -0.218 NA
ATOM      2  H   UNL     1      51.015 157.266  28.029  0.00  0.00    +0.150 HD
ATOM      3  H   UNL     1      51.456 155.930  27.139  0.00  0.00    +0.150 HD
ENDROOT
BRANCH   1   4
ATOM      4  O   UNL     1      53.278 157.298  27.545  0.00  0.00    -0.318 OA
ATOM      5  H   UNL     1      53.812 156.985  26.798  0.00  0.00    +0.236 HD
ENDBRANCH   1   4
TORSDOF 1
REMARK  Name = =
REMARK  8 active torsions:
REMARK  status: ('A' for Active; 'I' for Inactive)
REMARK    1  A    between atoms: O_2  and  N_15
REMARK    2  A    between atoms: C_6  and  C_12
REMARK    3  A    between atoms: C_7  and  S_11
REMARK    4  A    between atoms: C_12  and  O_14
REMARK    5  A    between atoms: N_17  and  C_29
REMARK    6  A    between atoms: C_18  and  C_32
REMARK    7  A    between atoms: C_31  and  C_35
REMARK    8  A    between atoms: C_32  and  O_34
REMARK                            x       y       z     vdW  Elec       q    Type
REMARK                         _______ _______ _______ _____ _____    ______ ____
ROOT
ATOM      1  C   UNL     1      53.281 154.953  27.561  0.00  0.00    +0.106 C 
ATOM      2  C   UNL     1      52.690 154.509  26.244  0.00  0.00    +0.094 C 
ATOM      3  N   UNL     1      52.860 153.148  26.792  0.00  0.00    -0.254 N 
ATOM      4  C   UNL     1      53.198 152.284  25.737  0.00  0.00    +0.131 C 
ATOM      5  C   UNL     1      53.685 153.004  24.748  0.00  0.00    +0.021 C 
ATOM      6  C   UNL     1      53.692 154.422  25.113  0.00  0.00    +0.054 C 
ATOM      7  C   UNL     1      52.545 153.726  28.047  0.00  0.00    +0.231 C 
ATOM      8  O   UNL     1      51.919 153.254  28.996  0.00  0.00    -0.274 OA
ENDROOT
BRANCH   5   9
ATOM      9  S   UNL     1      54.248 152.301  23.186  0.00  0.00    -0.144 S 
ATOM     10  H   UNL     1      54.693 153.298  22.375  0.00  0.00    +0.107 HD
ENDBRANCH   5   9
BRANCH   4  11
ATOM     11  C   UNL     1      53.020 150.830  25.779  0.00  0.00    +0.352 C 
ATOM     12  O   UNL     1      52.127 150.326  26.476  0.00  0.00    -0.244 OA
BRANCH  11  13
ATOM     13  O   UNL     1      53.855 150.034  25.035  0.00  0.00    -0.476 OA
ATOM     14  H   UNL     1      54.528 150.422  24.511  0.00  0.00    +0.295 HD
ENDBRANCH  11  13
ENDBRANCH   4  11
TORSDOF 3
REMARK  Name = =
REMARK  8 active torsions:
REMARK  status: ('A' for Active; 'I' for Inactive)
REMARK    1  A    between atoms: O_2  and  N_15
REMARK    2  A    between atoms: C_6  and  C_12
REMARK    3  A    between atoms: C_7  and  S_11
REMARK    4  A    between atoms: C_12  and  O_14
REMARK    5  A    between atoms: N_17  and  C_29
REMARK    6  A    between atoms: C_18  and  C_32
REMARK    7  A    between atoms: C_31  and  C_35
REMARK    8  A    between atoms: C_32  and  O_34
REMARK                            x       y       z     vdW  Elec       q    Type
REMARK                         _______ _______ _______ _____ _____    ______ ____
ROOT
ATOM      1  N   UNL     1      51.942 155.425  29.737  0.00  0.00    -0.273 NA
ATOM      2  H   UNL     1      52.962 155.425  29.737  0.00  0.00    +0.137 HD
ATOM      3  H   UNL     1      51.602 156.303  29.344  0.00  0.00    +0.137 HD
ENDROOT
TORSDOF 0
REMARK  Name = =
REMARK  8 active torsions:
REMARK  status: ('A' for Active; 'I' for Inactive)
REMARK    1  A    between atoms: O_2  and  N_15
REMARK    2  A    between atoms: C_6  and  C_12
REMARK    3  A    between atoms: C_7  and  S_11
REMARK    4  A    between atoms: C_12  and  O_14
REMARK    5  A    between atoms: N_17  and  C_29
REMARK    6  A    between atoms: C_18  and  C_32
REMARK    7  A    between atoms: C_31  and  C_35
REMARK    8  A    between atoms: C_32  and  O_34
REMARK                            x       y       z     vdW  Elec       q    Type
REMARK                         _______ _______ _______ _____ _____    ______ ____
ROOT
ATOM      1  C   UNL     1      49.749 159.962  30.609  0.00  0.00    +0.076 C 
ATOM      2  C   UNL     1      51.037 160.446  30.626  0.00  0.00    +0.007 C 
ATOM      3  C   UNL     1      52.055 159.561  30.278  0.00  0.00    +0.015 C 
ATOM      4  C   UNL     1      53.345 160.068  30.309  0.00  0.00    -0.001 C 
ATOM      5  C   UNL     1      53.646 161.366  30.658  0.00  0.00    +0.003 C 
ATOM      6  C   UNL     1      52.639 162.239  31.000  0.00  0.00    -0.021 C 
ATOM      7  C   UNL     1      51.345 161.744  30.973  0.00  0.00    -0.004 C 
ATOM      8  C   UNL     1      52.904 163.661  31.389  0.00  0.00    +0.058 C 
ATOM      9  C   UNL     1      54.360 163.962  31.271  0.00  0.00    +0.147 C 
ATOM     10  O   UNL     1      54.990 163.215  30.277  0.00  0.00    -0.349 OA
ATOM     11  C   UNL     1      55.042 161.875  30.685  0.00  0.00    +0.168 C 
ATOM     12  C   UNL     1      51.805 158.249  29.928  0.00  0.00    +0.061 C 
ATOM     13  C   UNL     1      50.538 157.789  29.916  0.00  0.00    +0.017 C 
ATOM     14  C   UNL     1      49.500 158.624  30.250  0.00  0.00    +0.014 C 
ENDROOT
BRANCH  12  15
ATOM     15  N   UNL     1      52.951 157.440  29.576  0.00  0.00    -0.265 NA
ATOM     16  H   UNL     1      53.855 157.829  29.603  0.00  0.00    +0.170 HD
ENDBRANCH  12  15
BRANCH   1  17
ATOM     17  C   UNL     1      48.613 160.780  30.946  0.00  0.00    +0.338 C 
ATOM     18  O   UNL     1      48.624 162.000  31.115  0.00  0.00    -0.245 OA
BRANCH  17  19
ATOM     19  O   UNL     1      47.341 160.187  31.111  0.00  0.00    -0.477 OA
ATOM     20  H   UNL     1      47.237 159.262  31.001  0.00  0.00    +0.295 HD
ENDBRANCH  17  19
ENDBRANCH   1  17
BRANCH  14  21
ATOM     21  C   UNL     1      48.107 158.144  30.243  0.00  0.00    +0.042 C 
ATOM     22  S   UNL     1      47.578 157.415  28.889  0.00  0.00    -0.050 S 
ENDBRANCH  14  21
TORSDOF 4
