REMARK  Name = =
REMARK  2 active torsions:
REMARK  status: ('A' for Active; 'I' for Inactive)
REMARK    1  A    between atoms: C_1  and  C_6
REMARK    2  A    between atoms: C_21  and  O_24
REMARK                            x       y       z     vdW  Elec       q    Type
REMARK                         _______ _______ _______ _____ _____    ______ ____
ROOT
ATOM      1  C   UNL     1      52.263 160.823  31.023  0.00  0.00    +0.033 C 
ATOM      2  C   UNL     1      53.211 161.131  30.078  0.00  0.00    -0.002 C 
ATOM      3  C   UNL     1      54.419 161.682  30.465  0.00  0.00    -0.008 C 
ATOM      4  C   UNL     1      54.673 161.924  31.798  0.00  0.00    +0.046 C 
ATOM      5  C   UNL     1      53.727 161.621  32.771  0.00  0.00    +0.014 C 
ATOM      6  C   UNL     1      52.516 161.065  32.348  0.00  0.00    +0.002 C 
ATOM      7  N   UNL     1      55.922 162.502  32.215  0.00  0.00    -0.284 N 
ATOM      8  C   UNL     1      56.854 162.799  31.173  0.00  0.00    +0.226 C 
ATOM      9  O   UNL     1      58.077 162.765  31.391  0.00  0.00    -0.275 OA
ATOM     10  C   UNL     1      56.264 163.138  29.852  0.00  0.00    +0.090 C 
ATOM     11  C   UNL     1      55.407 161.989  29.402  0.00  0.00    +0.037 C 
ATOM     12  H   UNL     1      56.123 162.682  33.162  0.00  0.00    +0.155 HD
ENDROOT
BRANCH   1  13
ATOM     13  C   UNL     1      50.978 160.237  30.613  0.00  0.00    +0.260 C 
ATOM     14  O   UNL     1      50.491 159.444  31.620  0.00  0.00    -0.324 OA
ATOM     15  C   UNL     1      49.483 160.170  32.253  0.00  0.00    +0.177 C 
ATOM     16  C   UNL     1      48.885 160.911  31.050  0.00  0.00    +0.177 C 
ATOM     17  O   UNL     1      50.037 161.225  30.344  0.00  0.00    -0.324 OA
ENDBRANCH   1  13
TORSDOF 1
REMARK  Name = =
REMARK  2 active torsions:
REMARK  status: ('A' for Active; 'I' for Inactive)
REMARK    1  A    between atoms: C_1  and  C_6
REMARK    2  A    between atoms: C_21  and  O_24
REMARK                            x       y       z     vdW  Elec       q    Type
REMARK                         _______ _______ _______ _____ _____    ______ ____
ROOT
ATOM      1  I   UNL     1      51.323 159.117  28.831  0.00  0.00    -0.107 I 
ATOM      2  H   UNL     1      52.884 159.117  28.831  0.00  0.00    +0.107 HD
ENDROOT
TORSDOF 0
REMARK  Name = =
REMARK  2 active torsions:
REMARK  status: ('A' for Active; 'I' for Inactive)
REMARK    1  A    between atoms: C_1  and  C_6
REMARK    2  A    between atoms: C_21  and  O_24
REMARK                            x       y       z     vdW  Elec       q    Type
REMARK                         _______ _______ _______ _____ _____    ______ ____
ROOT
ATOM      1  C   UNL     1      50.534 156.580  30.343  0.00  0.00    +0.000 C 
ATOM      2  C   UNL     1      51.330 157.099  29.351  0.00  0.00    +0.003 C 
ATOM      3  C   UNL     1      52.168 156.244  28.671  0.00  0.00    +0.037 C 
ATOM      4  C   UNL     1      52.253 154.891  28.933  0.00  0.00    +0.134 C 
ATOM      5  C   UNL     1      51.449 154.377  29.934  0.00  0.00    +0.037 C 
ATOM      6  C   UNL     1      50.599 155.232  30.626  0.00  0.00    +0.003 C 
ENDROOT
BRANCH   4   7
ATOM      7  O   UNL     1      53.116 154.061  28.221  0.00  0.00    -0.506 OA
ATOM      8  H   UNL     1      53.657 154.418  27.544  0.00  0.00    +0.292 HD
ENDBRANCH   4   7
TORSDOF 1
