REMARK  Name = =
REMARK  0 active torsions:
REMARK  status: ('A' for Active; 'I' for Inactive)
REMARK                            x       y       z     vdW  Elec       q    Type
REMARK                         _______ _______ _______ _____ _____    ______ ____
ROOT
ATOM      1  C   UNL     1      52.776 156.758  27.881  0.00  0.00    +0.099 C 
ATOM      2  C   UNL     1      52.848 155.752  26.952  0.00  0.00    +0.022 C 
ATOM      3  C   UNL     1      52.237 154.547  27.205  0.00  0.00    +0.022 C 
ATOM      4  C   UNL     1      51.569 154.423  28.413  0.00  0.00    +0.022 C 
ATOM      5  C   UNL     1      51.502 155.443  29.341  0.00  0.00    +0.099 C 
ATOM      6  N   UNL     1      52.120 156.612  29.047  0.00  0.00    -0.242 NA
ATOM      7  C   UNL     1      52.312 153.548  26.279  0.00  0.00    +0.099 C 
ATOM      8  N   UNL     1      52.978 153.715  25.110  0.00  0.00    -0.242 NA
ATOM      9  C   UNL     1      53.584 154.871  24.829  0.00  0.00    +0.099 C 
ATOM     10  C   UNL     1      53.526 155.901  25.744  0.00  0.00    +0.022 C 
ENDROOT
TORSDOF 0
