REMARK  Name = =
REMARK  0 active torsions:
REMARK  status: ('A' for Active; 'I' for Inactive)
REMARK                            x       y       z     vdW  Elec       q    Type
REMARK                         _______ _______ _______ _____ _____    ______ ____
ROOT
ATOM      1  N   UNL     1      51.805 152.272  27.047  0.00  0.00    -0.268 NA
ATOM      2  C   UNL     1      52.234 153.329  26.431  0.00  0.00    +0.122 C 
ATOM      3  C   UNL     1      53.051 152.939  25.339  0.00  0.00    -0.020 C 
ATOM      4  C   UNL     1      53.087 151.604  25.331  0.00  0.00    +0.011 C 
ATOM      5  C   UNL     1      52.291 151.073  26.425  0.00  0.00    +0.076 C 
ATOM      6  C   UNL     1      52.143 149.791  26.666  0.00  0.00    +0.019 C 
ATOM      7  C   UNL     1      52.792 148.786  25.818  0.00  0.00    +0.002 C 
ATOM      8  C   UNL     1      53.590 149.322  24.721  0.00  0.00    +0.000 C 
ATOM      9  C   UNL     1      53.741 150.590  24.478  0.00  0.00    +0.001 C 
ATOM     10  C   UNL     1      53.751 153.852  24.369  0.00  0.00    +0.041 C 
ATOM     11  C   UNL     1      52.917 154.824  23.682  0.00  0.00    +0.077 C 
ATOM     12  N   UNL     1      53.272 156.207  23.688  0.00  0.00    -0.272 NA
ATOM     13  C   UNL     1      52.720 156.750  24.945  0.00  0.00    +0.072 C 
ATOM     14  C   UNL     1      53.600 156.158  25.965  0.00  0.00    +0.016 C 
ATOM     15  C   UNL     1      53.068 155.580  27.170  0.00  0.00    +0.004 C 
ATOM     16  C   UNL     1      51.871 154.721  26.872  0.00  0.00    +0.029 C 
ATOM     17  C   UNL     1      54.880 156.888  25.997  0.00  0.00    +0.003 C 
ATOM     18  C   UNL     1      55.056 157.545  24.647  0.00  0.00    +0.017 C 
ATOM     19  C   UNL     1      54.617 156.561  23.583  0.00  0.00    +0.072 C 
ENDROOT
TORSDOF 0
