REMARK  Name = =
REMARK  1 active torsions:
REMARK  status: ('A' for Active; 'I' for Inactive)
REMARK    1  A    between atoms: C_1  and  C_16
REMARK                            x       y       z     vdW  Elec       q    Type
REMARK                         _______ _______ _______ _____ _____    ______ ____
ROOT
ATOM      1  C   UNL     1      51.480 154.232  29.618  0.00  0.00    +0.161 A 
ATOM      2  N   UNL     1      51.139 152.952  29.316  0.00  0.00    -0.227 NA
ATOM      3  C   UNL     1      50.600 152.121  30.193  0.00  0.00    +0.088 A 
ATOM      4  C   UNL     1      50.353 152.527  31.483  0.00  0.00    +0.074 A 
ATOM      5  C   UNL     1      49.784 151.645  32.402  0.00  0.00    +0.006 C 
ATOM      6  C   UNL     1      49.480 150.363  31.974  0.00  0.00    +0.000 C 
ATOM      7  C   UNL     1      49.714 149.926  30.686  0.00  0.00    +0.002 C 
ATOM      8  C   UNL     1      50.283 150.838  29.803  0.00  0.00    +0.019 C 
ATOM      9  C   UNL     1      50.691 153.822  31.813  0.00  0.00    +0.260 A 
ATOM     10  O   UNL     1      50.469 154.197  32.988  0.00  0.00    -0.267 OA
ATOM     11  N   UNL     1      51.244 154.639  30.875  0.00  0.00    -0.305 N 
ATOM     12  H   UNL     1      51.479 155.561  31.128  0.00  0.00    +0.170 HD
ENDROOT
BRANCH   1  17
ATOM     13  C   UNL     1      52.998 157.128  27.920  0.00  0.00    +0.099 C 
ATOM     14  C   UNL     1      53.189 156.687  26.636  0.00  0.00    +0.022 C 
ATOM     15  C   UNL     1      52.809 155.402  26.318  0.00  0.00    +0.022 C 
ATOM     16  C   UNL     1      52.246 154.612  27.326  0.00  0.00    +0.024 C 
ATOM     17  C   UNL     1      52.071 155.091  28.600  0.00  0.00    +0.115 C 
ATOM     18  N   UNL     1      52.449 156.346  28.883  0.00  0.00    -0.241 NA
ATOM     19  C   UNL     1      52.987 154.924  25.033  0.00  0.00    +0.099 C 
ATOM     20  N   UNL     1      53.534 155.726  24.101  0.00  0.00    -0.242 NA
ATOM     21  C   UNL     1      53.920 156.980  24.351  0.00  0.00    +0.099 C 
ATOM     22  C   UNL     1      53.743 157.464  25.646  0.00  0.00    +0.022 C 
ENDBRANCH   1  17
TORSDOF 1
