REMARK  Name = =
REMARK  2 active torsions:
REMARK  status: ('A' for Active; 'I' for Inactive)
REMARK    1  A    between atoms: C_10  and  N_20
REMARK    2  A    between atoms: N_20  and  C_21
REMARK                            x       y       z     vdW  Elec       q    Type
REMARK                         _______ _______ _______ _____ _____    ______ ____
ROOT
ATOM      1  N   UNL     1      51.751 152.337  26.796  0.00  0.00    -0.268 NA
ATOM      2  C   UNL     1      51.958 153.597  27.115  0.00  0.00    +0.123 C 
ATOM      3  C   UNL     1      53.195 154.017  26.596  0.00  0.00    -0.002 C 
ATOM      4  C   UNL     1      53.741 152.965  25.948  0.00  0.00    +0.013 C 
ATOM      5  C   UNL     1      52.844 151.829  26.041  0.00  0.00    +0.076 C 
ATOM      6  C   UNL     1      53.092 150.631  25.503  0.00  0.00    +0.019 C 
ATOM      7  C   UNL     1      54.321 150.402  24.769  0.00  0.00    +0.002 C 
ATOM      8  C   UNL     1      55.234 151.561  24.679  0.00  0.00    +0.000 C 
ATOM      9  C   UNL     1      54.980 152.739  25.213  0.00  0.00    +0.001 C 
ATOM     10  C   UNL     1      53.858 155.357  26.697  0.00  0.00    +0.106 C 
ATOM     11  C   UNL     1      52.920 156.477  26.820  0.00  0.00    +0.096 C 
ATOM     12  N   UNL     1      52.328 156.768  28.029  0.00  0.00    -0.271 NA
ATOM     13  C   UNL     1      52.851 156.338  29.262  0.00  0.00    +0.072 C 
ATOM     14  C   UNL     1      51.625 155.724  29.972  0.00  0.00    +0.016 C 
ATOM     15  C   UNL     1      51.309 154.390  29.374  0.00  0.00    +0.004 C 
ATOM     16  C   UNL     1      50.949 154.364  27.931  0.00  0.00    +0.029 C 
ATOM     17  C   UNL     1      50.513 156.727  29.802  0.00  0.00    +0.003 C 
ATOM     18  C   UNL     1      51.039 158.121  29.463  0.00  0.00    +0.017 C 
ATOM     19  C   UNL     1      51.812 158.109  28.154  0.00  0.00    +0.072 C 
ENDROOT
BRANCH  10  20
ATOM     20  N   UNL     1      54.650 155.642  25.496  0.00  0.00    -0.329 N 
ATOM     21  H   UNL     1      55.560 155.274  25.424  0.00  0.00    +0.147 HD
BRANCH  20  22
ATOM     22  C   UNL     1      54.134 156.444  24.422  0.00  0.00    +0.058 C 
ATOM     23  C   UNL     1      54.863 157.364  23.833  0.00  0.00    +0.017 C 
ENDBRANCH  20  22
ENDBRANCH  10  20
TORSDOF 2
