REMARK  Name = =
REMARK  3 active torsions:
REMARK  status: ('A' for Active; 'I' for Inactive)
REMARK    1  A    between atoms: C_10  and  N_20
REMARK    2  A    between atoms: N_20  and  C_21
REMARK    3  A    between atoms: N_20  and  C_26
REMARK                            x       y       z     vdW  Elec       q    Type
REMARK                         _______ _______ _______ _____ _____    ______ ____
ROOT
ATOM      1  N   UNL     1      51.442 152.497  26.287  0.00  0.00    -0.268 NA
ATOM      2  C   UNL     1      51.630 153.756  26.467  0.00  0.00    +0.123 C 
ATOM      3  C   UNL     1      52.993 154.117  26.272  0.00  0.00    -0.002 C 
ATOM      4  C   UNL     1      53.639 152.989  25.957  0.00  0.00    +0.013 C 
ATOM      5  C   UNL     1      52.690 151.921  25.953  0.00  0.00    +0.076 C 
ATOM      6  C   UNL     1      53.076 150.681  25.668  0.00  0.00    +0.019 C 
ATOM      7  C   UNL     1      54.460 150.306  25.342  0.00  0.00    +0.002 C 
ATOM      8  C   UNL     1      55.417 151.413  25.350  0.00  0.00    +0.000 C 
ATOM      9  C   UNL     1      55.028 152.636  25.634  0.00  0.00    +0.001 C 
ATOM     10  C   UNL     1      53.647 155.420  26.371  0.00  0.00    +0.114 C 
ATOM     11  C   UNL     1      53.144 156.442  27.254  0.00  0.00    +0.097 C 
ATOM     12  N   UNL     1      52.840 156.153  28.616  0.00  0.00    -0.271 NA
ATOM     13  C   UNL     1      51.444 156.402  28.894  0.00  0.00    +0.072 C 
ATOM     14  C   UNL     1      50.666 155.223  29.287  0.00  0.00    +0.016 C 
ATOM     15  C   UNL     1      50.092 154.362  28.258  0.00  0.00    +0.004 C 
ATOM     16  C   UNL     1      50.493 154.654  26.835  0.00  0.00    +0.029 C 
ATOM     17  C   UNL     1      51.317 154.537  30.448  0.00  0.00    +0.003 C 
ATOM     18  C   UNL     1      52.774 154.836  30.585  0.00  0.00    +0.017 C 
ATOM     19  C   UNL     1      53.424 155.030  29.213  0.00  0.00    +0.072 C 
ENDROOT
BRANCH  10  20
ATOM     20  N   UNL     1      53.670 155.969  25.019  0.00  0.00    -0.257 N 
BRANCH  20  21
ATOM     21  C   UNL     1      54.808 156.561  24.401  0.00  0.00    +0.327 C 
ATOM     22  O   UNL     1      55.353 157.609  25.178  0.00  0.00    -0.312 OA
ATOM     23  C   UNL     1      56.363 158.041  24.317  0.00  0.00    +0.179 C 
ATOM     24  C   UNL     1      55.620 158.061  22.989  0.00  0.00    +0.179 C 
ATOM     25  O   UNL     1      54.483 157.259  23.241  0.00  0.00    -0.312 OA
ENDBRANCH  20  21
BRANCH  20  26
ATOM     26  C   UNL     1      52.457 155.908  24.252  0.00  0.00    +0.065 C 
ATOM     27  C   UNL     1      51.849 157.029  23.909  0.00  0.00    +0.017 C 
ENDBRANCH  20  26
ENDBRANCH  10  20
TORSDOF 3
