REMARK  Name = =
REMARK  4 active torsions:
REMARK  status: ('A' for Active; 'I' for Inactive)
REMARK    1  A    between atoms: C_10  and  N_20
REMARK    2  A    between atoms: N_20  and  C_21
REMARK    3  A    between atoms: N_20  and  C_29
REMARK    4  A    between atoms: C_21  and  S_26
REMARK                            x       y       z     vdW  Elec       q    Type
REMARK                         _______ _______ _______ _____ _____    ______ ____
ROOT
ATOM      1  N   UNL     1      52.342 150.842  27.742  0.00  0.00    -0.268 NA
ATOM      2  C   UNL     1      52.435 152.139  27.906  0.00  0.00    +0.123 C 
ATOM      3  C   UNL     1      52.877 152.714  26.688  0.00  0.00    -0.002 C 
ATOM      4  C   UNL     1      53.047 151.716  25.788  0.00  0.00    +0.013 C 
ATOM      5  C   UNL     1      52.709 150.470  26.430  0.00  0.00    +0.076 C 
ATOM      6  C   UNL     1      52.772 149.292  25.805  0.00  0.00    +0.019 C 
ATOM      7  C   UNL     1      53.191 149.193  24.422  0.00  0.00    +0.002 C 
ATOM      8  C   UNL     1      53.528 150.462  23.789  0.00  0.00    +0.000 C 
ATOM      9  C   UNL     1      53.471 151.642  24.394  0.00  0.00    +0.001 C 
ATOM     10  C   UNL     1      53.117 154.145  26.395  0.00  0.00    +0.115 C 
ATOM     11  C   UNL     1      53.330 155.024  27.586  0.00  0.00    +0.097 C 
ATOM     12  N   UNL     1      52.149 155.385  28.237  0.00  0.00    -0.271 NA
ATOM     13  C   UNL     1      52.179 155.569  29.665  0.00  0.00    +0.072 C 
ATOM     14  C   UNL     1      50.886 154.835  30.081  0.00  0.00    +0.016 C 
ATOM     15  C   UNL     1      50.822 153.586  29.178  0.00  0.00    +0.004 C 
ATOM     16  C   UNL     1      52.108 152.831  29.193  0.00  0.00    +0.029 C 
ATOM     17  C   UNL     1      49.786 155.745  29.536  0.00  0.00    +0.003 C 
ATOM     18  C   UNL     1      50.273 156.824  28.646  0.00  0.00    +0.017 C 
ATOM     19  C   UNL     1      51.370 156.439  27.691  0.00  0.00    +0.072 C 
ENDROOT
BRANCH  10  20
ATOM     20  N   UNL     1      54.167 154.451  25.474  0.00  0.00    -0.244 N 
BRANCH  20  21
ATOM     21  C   UNL     1      54.561 155.769  25.061  0.00  0.00    +0.375 C 
ATOM     22  O   UNL     1      54.236 155.963  23.747  0.00  0.00    -0.300 OA
ATOM     23  C   UNL     1      55.334 156.379  23.042  0.00  0.00    +0.180 C 
ATOM     24  C   UNL     1      56.321 156.717  24.157  0.00  0.00    +0.180 C 
ATOM     25  O   UNL     1      55.992 155.725  25.089  0.00  0.00    -0.300 OA
BRANCH  21  26
ATOM     26  S   UNL     1      54.100 157.106  26.055  0.00  0.00    +0.032 S 
ATOM     27  O   UNL     1      52.842 157.737  25.475  0.00  0.00    -0.171 OA
ATOM     28  O   UNL     1      55.119 158.233  26.080  0.00  0.00    -0.171 OA
ATOM     29  H   UNL     1      53.952 156.596  27.307  0.00  0.00    +0.217 HD
ENDBRANCH  21  26
ENDBRANCH  20  21
BRANCH  20  30
ATOM     30  C   UNL     1      54.931 153.361  24.973  0.00  0.00    +0.067 C 
ATOM     31  C   UNL     1      56.211 153.200  25.325  0.00  0.00    +0.017 C 
ENDBRANCH  20  30
ENDBRANCH  10  20
TORSDOF 4
