REMARK  Name = =
REMARK  5 active torsions:
REMARK  status: ('A' for Active; 'I' for Inactive)
REMARK    1  A    between atoms: C_10  and  N_29
REMARK    2  A    between atoms: C_18  and  N_20
REMARK    3  A    between atoms: N_29  and  C_30
REMARK    4  A    between atoms: N_29  and  C_38
REMARK    5  A    between atoms: C_30  and  S_35
REMARK                            x       y       z     vdW  Elec       q    Type
REMARK                         _______ _______ _______ _____ _____    ______ ____
ROOT
ATOM      1  N   UNL     1      52.739 151.641  28.443  0.00  0.00    -0.268 NA
ATOM      2  C   UNL     1      53.062 152.892  28.530  0.00  0.00    +0.123 C 
ATOM      3  C   UNL     1      53.366 153.452  27.214  0.00  0.00    -0.002 C 
ATOM      4  C   UNL     1      53.201 152.424  26.364  0.00  0.00    +0.013 C 
ATOM      5  C   UNL     1      52.795 151.238  27.110  0.00  0.00    +0.076 C 
ATOM      6  C   UNL     1      52.586 150.103  26.459  0.00  0.00    +0.019 C 
ATOM      7  C   UNL     1      52.708 149.900  25.015  0.00  0.00    +0.002 C 
ATOM      8  C   UNL     1      53.130 151.092  24.290  0.00  0.00    +0.000 C 
ATOM      9  C   UNL     1      53.351 152.239  24.905  0.00  0.00    +0.001 C 
ATOM     10  C   UNL     1      53.725 154.829  26.978  0.00  0.00    +0.115 C 
ATOM     11  C   UNL     1      53.079 155.913  27.768  0.00  0.00    +0.097 C 
ATOM     12  N   UNL     1      51.692 156.127  27.688  0.00  0.00    -0.270 NA
ATOM     13  C   UNL     1      50.932 155.023  28.191  0.00  0.00    +0.072 C 
ATOM     14  C   UNL     1      51.119 154.999  29.630  0.00  0.00    +0.017 C 
ATOM     15  C   UNL     1      51.790 153.937  30.301  0.00  0.00    +0.004 C 
ATOM     16  C   UNL     1      53.168 153.574  29.844  0.00  0.00    +0.029 C 
ATOM     17  C   UNL     1      50.466 156.097  30.323  0.00  0.00    +0.019 C 
ATOM     18  C   UNL     1      50.398 157.330  29.443  0.00  0.00    +0.073 C 
ATOM     19  C   UNL     1      51.348 157.366  28.313  0.00  0.00    +0.088 C 
ENDROOT
BRANCH  18  20
ATOM     20  N   UNL     1      50.588 158.446  30.351  0.00  0.00    -0.274 NA
ATOM     21  C   UNL     1      49.290 158.864  30.871  0.00  0.00    +0.058 C 
ATOM     22  C   UNL     1      49.422 159.278  32.301  0.00  0.00    +0.016 C 
ATOM     23  C   UNL     1      48.317 160.171  32.788  0.00  0.00    +0.001 C 
ATOM     24  C   UNL     1      48.320 161.419  31.928  0.00  0.00    +0.000 C 
ATOM     25  C   UNL     1      47.931 160.953  30.522  0.00  0.00    +0.001 C 
ATOM     26  C   UNL     1      48.914 159.992  29.947  0.00  0.00    +0.016 C 
ATOM     27  C   UNL     1      50.203 160.661  29.603  0.00  0.00    +0.019 C 
ATOM     28  C   UNL     1      51.232 159.582  29.831  0.00  0.00    +0.072 C 
ENDBRANCH  18  20
BRANCH  10  29
ATOM     29  N   UNL     1      53.688 155.284  25.596  0.00  0.00    -0.244 N 
BRANCH  29  30
ATOM     30  C   UNL     1      54.876 155.198  24.758  0.00  0.00    +0.375 C 
ATOM     31  O   UNL     1      55.874 154.449  25.340  0.00  0.00    -0.300 OA
ATOM     32  C   UNL     1      56.575 153.847  24.285  0.00  0.00    +0.180 C 
ATOM     33  C   UNL     1      55.642 153.867  23.120  0.00  0.00    +0.180 C 
ATOM     34  O   UNL     1      54.540 154.595  23.562  0.00  0.00    -0.300 OA
BRANCH  30  35
ATOM     35  S   UNL     1      55.542 156.791  24.341  0.00  0.00    +0.032 S 
ATOM     36  O   UNL     1      54.734 157.511  23.331  0.00  0.00    -0.171 OA
ATOM     37  O   UNL     1      55.892 157.593  25.552  0.00  0.00    -0.171 OA
ATOM     38  H   UNL     1      56.729 156.573  23.714  0.00  0.00    +0.217 HD
ENDBRANCH  30  35
ENDBRANCH  29  30
BRANCH  29  39
ATOM     39  C   UNL     1      52.527 155.856  25.074  0.00  0.00    +0.067 C 
ATOM     40  C   UNL     1      51.993 155.700  23.887  0.00  0.00    +0.017 C 
ENDBRANCH  29  39
ENDBRANCH  10  29
TORSDOF 5
