REMARK  Name = =
REMARK  0 active torsions:
REMARK  status: ('A' for Active; 'I' for Inactive)
REMARK                            x       y       z     vdW  Elec       q    Type
REMARK                         _______ _______ _______ _____ _____    ______ ____
ROOT
ATOM      1  O   UNL     1      51.648 155.795  28.414  0.00  0.00    -0.421 OA
ATOM      2  C   UNL     1      51.136 156.455  29.524  0.00  0.00    +0.346 C 
ATOM      3  O   UNL     1      50.266 155.995  30.316  0.00  0.00    -0.244 OA
ATOM      4  C   UNL     1      51.752 157.771  29.652  0.00  0.00    +0.085 C 
ATOM      5  C   UNL     1      52.603 157.862  28.629  0.00  0.00    +0.044 C 
ATOM      6  C   UNL     1      52.559 156.638  27.835  0.00  0.00    +0.149 C 
ATOM      7  C   UNL     1      53.298 156.416  26.739  0.00  0.00    +0.041 C 
ENDROOT
TORSDOF 0
