REMARK  Name = =
REMARK  1 active torsions:
REMARK  status: ('A' for Active; 'I' for Inactive)
REMARK    1  A    between atoms: C_4  and  C_8
REMARK                            x       y       z     vdW  Elec       q    Type
REMARK                         _______ _______ _______ _____ _____    ______ ____
ROOT
ATOM      1  O   UNL     1      51.548 155.866  28.568  0.00  0.00    -0.421 OA
ATOM      2  C   UNL     1      50.520 156.422  29.289  0.00  0.00    +0.342 C 
ATOM      3  O   UNL     1      49.542 155.782  29.750  0.00  0.00    -0.245 OA
ATOM      4  C   UNL     1      50.720 157.856  29.444  0.00  0.00    +0.061 C 
ATOM      5  C   UNL     1      51.852 158.105  28.814  0.00  0.00    +0.040 C 
ATOM      6  C   UNL     1      52.429 156.897  28.238  0.00  0.00    +0.149 C 
ATOM      7  C   UNL     1      53.555 156.803  27.547  0.00  0.00    +0.041 C 
ENDROOT
BRANCH   4   8
ATOM      8  C   UNL     1      49.858 158.841  30.148  0.00  0.00    +0.051 C 
ATOM      9  C   UNL     1      50.555 160.185  30.146  0.00  0.00    +0.017 C 
ATOM     10  C   UNL     1      49.823 161.220  30.931  0.00  0.00    +0.070 C 
ATOM     11  C   UNL     1      48.897 160.633  31.938  0.00  0.00    +0.173 C 
ATOM     12  O   UNL     1      47.921 161.319  32.395  0.00  0.00    -0.291 OA
ATOM     13  C   UNL     1      49.130 159.265  32.388  0.00  0.00    +0.033 C 
ATOM     14  C   UNL     1      49.599 158.370  31.534  0.00  0.00    -0.019 C 
ENDBRANCH   4   8
TORSDOF 1
