REMARK  Name = =
REMARK  2 active torsions:
REMARK  status: ('A' for Active; 'I' for Inactive)
REMARK    1  A    between atoms: C_1  and  N_8
REMARK    2  A    between atoms: C_1  and  C_19
REMARK                            x       y       z     vdW  Elec       q    Type
REMARK                         _______ _______ _______ _____ _____    ______ ____
ROOT
ATOM      1  C   UNL     1      48.663 160.357  30.695  0.00  0.00    +0.105 C 
ATOM      2  C   UNL     1      47.911 159.649  31.766  0.00  0.00    +0.035 C 
ATOM      3  C   UNL     1      48.955 159.199  32.804  0.00  0.00    +0.071 C 
ATOM      4  C   UNL     1      49.831 160.322  33.198  0.00  0.00    +0.173 C 
ATOM      5  O   UNL     1      50.665 160.115  34.103  0.00  0.00    -0.291 OA
ATOM      6  C   UNL     1      49.678 161.595  32.517  0.00  0.00    +0.035 C 
ATOM      7  C   UNL     1      49.131 161.657  31.331  0.00  0.00    -0.001 C 
ENDROOT
BRANCH   1   8
ATOM      8  N   UNL     1      48.007 160.737  29.516  0.00  0.00    -0.276 N 
ATOM      9  C   UNL     1      48.218 159.846  28.418  0.00  0.00    +0.094 C 
ATOM     10  C   UNL     1      48.308 160.485  27.074  0.00  0.00    +0.022 C 
ATOM     11  C   UNL     1      48.345 161.976  27.142  0.00  0.00    +0.002 C 
ATOM     12  C   UNL     1      46.881 162.414  27.030  0.00  0.00    +0.010 C 
ATOM     13  C   UNL     1      46.421 162.615  28.446  0.00  0.00    +0.085 C 
ATOM     14  C   UNL     1      47.219 161.923  29.451  0.00  0.00    +0.226 C 
ATOM     15  O   UNL     1      47.208 162.537  30.549  0.00  0.00    -0.275 OA
ENDBRANCH   1   8
BRANCH   1  19
ATOM     16  O   UNL     1      50.984 157.587  29.990  0.00  0.00    -0.421 OA
ATOM     17  C   UNL     1      49.716 158.047  30.283  0.00  0.00    +0.344 C 
ATOM     18  O   UNL     1      48.706 157.324  30.422  0.00  0.00    -0.245 OA
ATOM     19  C   UNL     1      49.849 159.517  30.385  0.00  0.00    +0.077 C 
ATOM     20  C   UNL     1      51.092 159.886  30.170  0.00  0.00    +0.042 C 
ATOM     21  C   UNL     1      51.855 158.672  29.911  0.00  0.00    +0.149 C 
ATOM     22  C   UNL     1      53.136 158.567  29.645  0.00  0.00    +0.041 C 
ENDBRANCH   1  19
TORSDOF 2
