REMARK  Name = =
REMARK  5 active torsions:
REMARK  status: ('A' for Active; 'I' for Inactive)
REMARK    1  A    between atoms: C_1  and  N_8
REMARK    2  A    between atoms: C_1  and  C_23
REMARK    3  A    between atoms: C_9  and  N_16
REMARK    4  A    between atoms: N_16  and  C_17
REMARK    5  A    between atoms: C_17  and  O_19
REMARK                            x       y       z     vdW  Elec       q    Type
REMARK                         _______ _______ _______ _____ _____    ______ ____
ROOT
ATOM      1  C   UNL     1      50.445 159.724  30.674  0.00  0.00    +0.106 C 
ATOM      2  C   UNL     1      50.959 160.804  29.752  0.00  0.00    +0.035 C 
ATOM      3  C   UNL     1      52.423 161.054  29.884  0.00  0.00    +0.071 C 
ATOM      4  C   UNL     1      52.612 161.640  31.269  0.00  0.00    +0.173 C 
ATOM      5  O   UNL     1      53.207 162.695  31.485  0.00  0.00    -0.291 OA
ATOM      6  C   UNL     1      52.000 160.791  32.307  0.00  0.00    +0.035 C 
ATOM      7  C   UNL     1      51.035 159.945  32.017  0.00  0.00    -0.001 C 
ENDROOT
BRANCH   1   8
ATOM      8  N   UNL     1      50.702 158.417  30.157  0.00  0.00    -0.261 N 
ATOM      9  C   UNL     1      51.326 158.170  28.906  0.00  0.00    +0.152 C 
ATOM     10  C   UNL     1      50.545 157.182  28.049  0.00  0.00    +0.041 C 
ATOM     11  C   UNL     1      49.612 156.329  28.843  0.00  0.00    +0.004 C 
ATOM     12  C   UNL     1      50.310 155.357  29.756  0.00  0.00    +0.010 C 
ATOM     13  C   UNL     1      50.603 155.949  31.111  0.00  0.00    +0.085 C 
ATOM     14  C   UNL     1      50.243 157.385  31.053  0.00  0.00    +0.227 C 
ATOM     15  O   UNL     1      49.413 157.740  31.920  0.00  0.00    -0.275 OA
BRANCH   9  16
ATOM     16  N   UNL     1      52.636 157.559  29.018  0.00  0.00    -0.285 N 
ATOM     17  H   UNL     1      53.156 157.723  29.838  0.00  0.00    +0.152 HD
BRANCH  16  18
ATOM     18  C   UNL     1      53.202 156.751  28.030  0.00  0.00    +0.227 C 
ATOM     19  S   UNL     1      53.008 155.118  28.018  0.00  0.00    +0.006 S 
BRANCH  18  20
ATOM     20  O   UNL     1      53.964 157.274  26.991  0.00  0.00    -0.490 OA
ATOM     21  H   UNL     1      54.114 158.198  26.938  0.00  0.00    +0.294 HD
ENDBRANCH  18  20
ENDBRANCH  16  18
ENDBRANCH   9  16
ENDBRANCH   1   8
BRANCH   1  25
ATOM     22  O   UNL     1      46.833 160.687  30.322  0.00  0.00    -0.421 OA
ATOM     23  C   UNL     1      48.115 160.657  29.793  0.00  0.00    +0.344 C 
ATOM     24  O   UNL     1      48.449 161.126  28.667  0.00  0.00    -0.245 OA
ATOM     25  C   UNL     1      48.965 159.996  30.770  0.00  0.00    +0.077 C 
ATOM     26  C   UNL     1      48.219 159.667  31.795  0.00  0.00    +0.042 C 
ATOM     27  C   UNL     1      46.830 160.089  31.559  0.00  0.00    +0.149 C 
ATOM     28  C   UNL     1      45.793 159.926  32.375  0.00  0.00    +0.041 C 
ENDBRANCH   1  25
TORSDOF 5
