REMARK  Name = =
REMARK  6 active torsions:
REMARK  status: ('A' for Active; 'I' for Inactive)
REMARK    1  A    between atoms: N_1  and  C_9
REMARK    2  A    between atoms: C_2  and  N_23
REMARK    3  A    between atoms: C_9  and  C_19
REMARK    4  A    between atoms: N_23  and  N_24
REMARK    5  A    between atoms: N_23  and  C_27
REMARK    6  A    between atoms: C_27  and  O_29
REMARK                            x       y       z     vdW  Elec       q    Type
REMARK                         _______ _______ _______ _____ _____    ______ ____
ROOT
ATOM      1  N   UNL     1      49.414 158.644  29.940  0.00  0.00    -0.260 N 
ATOM      2  C   UNL     1      50.148 159.879  30.000  0.00  0.00    +0.170 C 
ATOM      3  C   UNL     1      49.378 161.056  29.397  0.00  0.00    +0.042 C 
ATOM      4  C   UNL     1      48.307 161.529  30.324  0.00  0.00    +0.004 C 
ATOM      5  C   UNL     1      47.011 160.851  29.908  0.00  0.00    +0.010 C 
ATOM      6  C   UNL     1      47.003 159.482  30.567  0.00  0.00    +0.085 C 
ATOM      7  C   UNL     1      47.996 158.578  29.921  0.00  0.00    +0.227 C 
ATOM      8  O   UNL     1      47.446 157.658  29.291  0.00  0.00    -0.275 OA
ENDROOT
BRANCH   1   9
ATOM      9  C   UNL     1      50.137 157.389  29.918  0.00  0.00    +0.106 C 
ATOM     10  C   UNL     1      50.360 156.979  31.400  0.00  0.00    +0.035 C 
ATOM     11  C   UNL     1      51.169 155.708  31.504  0.00  0.00    +0.071 C 
ATOM     12  C   UNL     1      50.920 154.770  30.382  0.00  0.00    +0.173 C 
ATOM     13  O   UNL     1      51.628 153.798  30.125  0.00  0.00    -0.291 OA
ATOM     14  C   UNL     1      49.746 155.067  29.562  0.00  0.00    +0.035 C 
ATOM     15  C   UNL     1      49.354 156.301  29.327  0.00  0.00    -0.001 C 
BRANCH   9  19
ATOM     16  O   UNL     1      53.400 157.075  28.126  0.00  0.00    -0.421 OA
ATOM     17  C   UNL     1      52.094 156.638  28.351  0.00  0.00    +0.344 C 
ATOM     18  O   UNL     1      51.636 155.666  27.685  0.00  0.00    -0.245 OA
ATOM     19  C   UNL     1      51.516 157.465  29.387  0.00  0.00    +0.077 C 
ATOM     20  C   UNL     1      52.473 158.345  29.738  0.00  0.00    +0.042 C 
ATOM     21  C   UNL     1      53.679 158.138  28.969  0.00  0.00    +0.149 C 
ATOM     22  C   UNL     1      54.833 158.782  29.007  0.00  0.00    +0.041 C 
ENDBRANCH   9  19
ENDBRANCH   1   9
BRANCH   2  23
ATOM     23  N   UNL     1      50.501 160.267  31.376  0.00  0.00    -0.199 N 
BRANCH  23  24
ATOM     24  N   UNL     1      49.923 159.596  32.391  0.00  0.00    -0.198 NA
ATOM     25  C   UNL     1      49.385 160.368  33.574  0.00  0.00    +0.111 C 
ATOM     26  C   UNL     1      48.547 159.520  32.730  0.00  0.00    +0.111 C 
ENDBRANCH  23  24
BRANCH  23  27
ATOM     27  C   UNL     1      51.428 161.312  31.550  0.00  0.00    +0.245 C 
ATOM     28  S   UNL     1      51.034 162.899  31.665  0.00  0.00    +0.007 S 
BRANCH  27  29
ATOM     29  O   UNL     1      52.808 161.028  31.638  0.00  0.00    -0.489 OA
ATOM     30  H   UNL     1      53.109 160.142  31.581  0.00  0.00    +0.294 HD
ENDBRANCH  27  29
ENDBRANCH  23  27
ENDBRANCH   2  23
TORSDOF 6
