# Name:          No_7_163
# Creation time: Thu Mar 21 09:38:59 2024


@<TRIPOS>MOLECULE
000001_000001
   41    43     1     1     1
SMALL
USER_CHARGES


@<TRIPOS>ATOM
      1 C17        -9.9380  -44.0780   32.3390 C.ar       1 <1>        0.210
      2 C20        -7.4650  -44.7920   31.3410 C.ar       1 <1>        0.110
      3 C21        -8.5840  -45.5640   31.0680 C.ar       1 <1>        0.210
      4 C16        -9.8330  -45.1980   31.5350 C.ar       1 <1>        0.170
      5 C18        -8.8360  -43.2880   32.6200 C.ar       1 <1>        0.210
      6 C19        -7.6280  -43.6740   32.1130 C.ar       1 <1>        0.060
      7 H         -10.9020  -43.8130   32.7580 H          1 <1>        0.000
      8 H          -6.4902  -45.0660   30.9541 H          1 <1>        0.000
      9 H          -8.9290  -42.3920   33.2230 H          1 <1>        0.000
     10 N1         -5.5590  -43.4750   33.4440 N.4        1 <1>        1.020
     11 C1         -6.4070  -42.8150   32.4270 C.3        1 <1>        0.060
     12 H2         -4.7474  -42.9183   33.6619 H          1 <1>        0.000
     13 H3         -6.0642  -43.6241   34.3034 H          1 <1>        0.000
     14 H6         -5.8419  -42.6610   31.4959 H          1 <1>        0.000
     15 H7         -6.7541  -41.8368   32.7911 H          1 <1>        0.000
     16 H1         -5.2331  -44.3736   33.1241 H          1 <1>        0.000
     17 C1         -8.4350  -46.8360   30.2400 C.3        1 <1>        0.100
     18 H1         -7.3802  -46.9680   29.9571 H          1 <1>        0.000
     19 H2         -8.7659  -47.7008   30.8338 H          1 <1>        0.000
     20 H4         -9.0510  -46.7570   29.3321 H          1 <1>        0.000
     21 C1        -11.0620  -46.0530   31.2420 C.3        1 <1>        0.000
     22 H2        -10.7437  -47.0248   30.8367 H          1 <1>        0.000
     23 H3        -11.6279  -46.2110   32.1719 H          1 <1>        0.000
     24 N1        -13.5590  -44.9290   28.8550 N.pl3      1 <1>        0.080
     25 N2        -13.0090  -45.8070   29.7320 N.2        1 <1>        0.200
     26 C1        -11.9310  -45.3520   30.2400 C.2        1 <1>        0.050
     27 C2        -10.7070  -43.0050   29.8050 C.ar       1 <1>        0.180
     28 C3        -10.8640  -41.8390   29.0450 C.ar       1 <1>        0.220
     29 C4        -11.9590  -41.6790   28.1800 C.ar       1 <1>        0.170
     30 C5        -12.9330  -42.6780   28.0460 C.ar       1 <1>        0.120
     31 C6        -12.7680  -43.8350   28.8070 C.ar       1 <1>        0.070
     32 C7        -11.6860  -43.9860   29.6560 C.ar       1 <1>        0.160
     33 H1        -14.4291  -45.0730   28.3229 H          1 <1>        0.000
     34 H3         -9.8679  -43.1440   30.4771 H          1 <1>        0.000
     35 H4        -10.1277  -41.0477   29.1270 H          1 <1>        0.000
     36 H5        -12.0540  -40.7657   27.6038 H          1 <1>        0.000
     37 C1        -14.1250  -42.5130   27.1090 C.3        1 <1>        0.050
     38 O3        -15.2070  -41.9030   27.8170 O.3        1 <1>        0.820
     39 H4        -14.4391  -43.4993   26.7369 H          1 <1>        0.000
     40 H5        -13.8382  -41.8755   26.2597 H          1 <1>        0.000
     41 H6        -15.9541  -41.7970   27.2399 H          1 <1>        0.000
@<TRIPOS>BOND
     1    3    2 ar 
     2    3    4 ar 
     3    2    6 ar 
     4    4    1 ar 
     5    6    5 ar 
     6    1    5 ar 
     7    1    7 1  
     8    2    8 1  
     9    5    9 1  
    10   10   11 1  
    11   10   12 1  
    12   10   13 1  
    13   11   14 1  
    14   11   15 1  
    15   10   16 1  
    16    6   11 1  
    17   17   18 1  
    18   17   19 1  
    19   17   20 1  
    20    3   17 1  
    21   21   22 1  
    22   21   23 1  
    23    4   21 1  
    24   25   24 1  
    25   24   31 1  
    26   26   25 2  
    27   32   26 1  
    28   27   28 ar 
    29   27   32 ar 
    30   28   29 ar 
    31   29   30 ar 
    32   30   31 ar 
    33   31   32 ar 
    34   24   33 1  
    35   27   34 1  
    36   28   35 1  
    37   29   36 1  
    38   21   26 1  
    39   37   38 1  
    40   37   39 1  
    41   37   40 1  
    42   38   41 1  
    43   30   37 1  
# Name:          No_7_164
# Creation time: Thu Mar 21 09:38:59 2024


@<TRIPOS>MOLECULE
000001_000002
   41    43     1     1     1
SMALL
USER_CHARGES


@<TRIPOS>ATOM
      1 C17        -9.9380  -44.0780   32.3390 C.ar       1 <1>        0.210
      2 C20        -7.4650  -44.7920   31.3410 C.ar       1 <1>        0.110
      3 C21        -8.5840  -45.5640   31.0680 C.ar       1 <1>        0.210
      4 C16        -9.8330  -45.1980   31.5350 C.ar       1 <1>        0.170
      5 C18        -8.8360  -43.2880   32.6200 C.ar       1 <1>        0.210
      6 C19        -7.6280  -43.6740   32.1130 C.ar       1 <1>        0.060
      7 H         -10.9020  -43.8130   32.7580 H          1 <1>        0.000
      8 H          -6.4902  -45.0660   30.9541 H          1 <1>        0.000
      9 H          -8.9290  -42.3920   33.2230 H          1 <1>        0.000
     10 N1         -5.5590  -43.4750   33.4440 N.4        1 <1>        1.020
     11 C1         -6.4070  -42.8150   32.4270 C.3        1 <1>        0.060
     12 H2         -4.7474  -42.9183   33.6619 H          1 <1>        0.000
     13 H3         -6.0642  -43.6241   34.3034 H          1 <1>        0.000
     14 H6         -5.8419  -42.6610   31.4959 H          1 <1>        0.000
     15 H7         -6.7541  -41.8368   32.7911 H          1 <1>        0.000
     16 H1         -5.2331  -44.3736   33.1241 H          1 <1>        0.000
     17 C1         -8.4350  -46.8360   30.2400 C.3        1 <1>        0.100
     18 H1         -7.3802  -46.9680   29.9571 H          1 <1>        0.000
     19 H2         -8.7659  -47.7008   30.8338 H          1 <1>        0.000
     20 H4         -9.0510  -46.7570   29.3321 H          1 <1>        0.000
     21 C1        -11.0620  -46.0530   31.2420 C.3        1 <1>        0.000
     22 H2        -10.7437  -47.0248   30.8367 H          1 <1>        0.000
     23 H3        -11.6279  -46.2110   32.1719 H          1 <1>        0.000
     24 N1        -13.5590  -44.9290   28.8550 N.pl3      1 <1>        0.080
     25 N2        -13.0090  -45.8070   29.7320 N.2        1 <1>        0.200
     26 C1        -11.9310  -45.3520   30.2400 C.2        1 <1>        0.050
     27 C2        -10.7070  -43.0050   29.8050 C.ar       1 <1>        0.180
     28 C3        -10.8640  -41.8390   29.0450 C.ar       1 <1>        0.220
     29 C4        -11.9590  -41.6790   28.1800 C.ar       1 <1>        0.170
     30 C5        -12.9330  -42.6780   28.0460 C.ar       1 <1>        0.120
     31 C6        -12.7680  -43.8350   28.8070 C.ar       1 <1>        0.070
     32 C7        -11.6860  -43.9860   29.6560 C.ar       1 <1>        0.160
     33 H1        -14.4291  -45.0730   28.3229 H          1 <1>        0.000
     34 H3         -9.8679  -43.1440   30.4771 H          1 <1>        0.000
     35 H4        -10.1277  -41.0477   29.1270 H          1 <1>        0.000
     36 H5        -12.0540  -40.7657   27.6038 H          1 <1>        0.000
     37 C1        -14.1250  -42.5130   27.1090 C.3        1 <1>        0.050
     38 O3        -14.5930  -41.1630   27.1670 O.3        1 <1>        0.820
     39 H4        -14.9316  -43.1945   27.4172 H          1 <1>        0.000
     40 H5        -13.8182  -42.7499   26.0796 H          1 <1>        0.000
     41 H6        -15.3361  -41.0510   26.5859 H          1 <1>        0.000
@<TRIPOS>BOND
     1    3    2 ar 
     2    3    4 ar 
     3    2    6 ar 
     4    4    1 ar 
     5    6    5 ar 
     6    1    5 ar 
     7    1    7 1  
     8    2    8 1  
     9    5    9 1  
    10   10   11 1  
    11   10   12 1  
    12   10   13 1  
    13   11   14 1  
    14   11   15 1  
    15   10   16 1  
    16    6   11 1  
    17   17   18 1  
    18   17   19 1  
    19   17   20 1  
    20    3   17 1  
    21   21   22 1  
    22   21   23 1  
    23    4   21 1  
    24   25   24 1  
    25   24   31 1  
    26   26   25 2  
    27   32   26 1  
    28   27   28 ar 
    29   27   32 ar 
    30   28   29 ar 
    31   29   30 ar 
    32   30   31 ar 
    33   31   32 ar 
    34   24   33 1  
    35   27   34 1  
    36   28   35 1  
    37   29   36 1  
    38   21   26 1  
    39   37   38 1  
    40   37   39 1  
    41   37   40 1  
    42   38   41 1  
    43   30   37 1  
# Name:          No_7_165
# Creation time: Thu Mar 21 09:38:59 2024


@<TRIPOS>MOLECULE
000001_000003
   41    43     1     1     1
SMALL
USER_CHARGES


@<TRIPOS>ATOM
      1 C17        -9.9380  -44.0780   32.3390 C.ar       1 <1>        0.210
      2 C20        -7.4650  -44.7920   31.3410 C.ar       1 <1>        0.110
      3 C21        -8.5840  -45.5640   31.0680 C.ar       1 <1>        0.210
      4 C16        -9.8330  -45.1980   31.5350 C.ar       1 <1>        0.170
      5 C18        -8.8360  -43.2880   32.6200 C.ar       1 <1>        0.210
      6 C19        -7.6280  -43.6740   32.1130 C.ar       1 <1>        0.060
      7 H         -10.9020  -43.8130   32.7580 H          1 <1>        0.000
      8 H          -6.4902  -45.0660   30.9541 H          1 <1>        0.000
      9 H          -8.9290  -42.3920   33.2230 H          1 <1>        0.000
     10 N1         -5.5590  -43.4750   33.4440 N.4        1 <1>        1.020
     11 C1         -6.4070  -42.8150   32.4270 C.3        1 <1>        0.060
     12 H2         -4.7474  -42.9183   33.6619 H          1 <1>        0.000
     13 H3         -6.0642  -43.6241   34.3034 H          1 <1>        0.000
     14 H6         -5.8419  -42.6610   31.4959 H          1 <1>        0.000
     15 H7         -6.7541  -41.8368   32.7911 H          1 <1>        0.000
     16 H1         -5.2331  -44.3736   33.1241 H          1 <1>        0.000
     17 C1         -8.4350  -46.8360   30.2400 C.3        1 <1>        0.100
     18 H1         -7.3802  -46.9680   29.9571 H          1 <1>        0.000
     19 H2         -8.7659  -47.7008   30.8338 H          1 <1>        0.000
     20 H4         -9.0510  -46.7570   29.3321 H          1 <1>        0.000
     21 C1        -11.0620  -46.0530   31.2420 C.3        1 <1>        0.000
     22 H2        -10.7437  -47.0248   30.8367 H          1 <1>        0.000
     23 H3        -11.6279  -46.2110   32.1719 H          1 <1>        0.000
     24 N1        -13.5590  -44.9290   28.8550 N.pl3      1 <1>        0.080
     25 N2        -13.0090  -45.8070   29.7320 N.2        1 <1>        0.200
     26 C1        -11.9310  -45.3520   30.2400 C.2        1 <1>        0.050
     27 C2        -10.7070  -43.0050   29.8050 C.ar       1 <1>        0.180
     28 C3        -10.8640  -41.8390   29.0450 C.ar       1 <1>        0.220
     29 C4        -11.9590  -41.6790   28.1800 C.ar       1 <1>        0.170
     30 C5        -12.9330  -42.6780   28.0460 C.ar       1 <1>        0.120
     31 C6        -12.7680  -43.8350   28.8070 C.ar       1 <1>        0.070
     32 C7        -11.6860  -43.9860   29.6560 C.ar       1 <1>        0.160
     33 H1        -14.4291  -45.0730   28.3229 H          1 <1>        0.000
     34 H3         -9.8679  -43.1440   30.4771 H          1 <1>        0.000
     35 H4        -10.1277  -41.0477   29.1270 H          1 <1>        0.000
     36 H5        -12.0540  -40.7657   27.6038 H          1 <1>        0.000
     37 C1        -14.1250  -42.5130   27.1090 C.3        1 <1>        0.050
     38 O3        -14.0840  -41.2150   26.5100 O.3        1 <1>        0.350
     39 H4        -15.0584  -42.6241   27.6803 H          1 <1>        0.000
     40 H5        -14.0830  -43.2807   26.3223 H          1 <1>        0.000
     41 H6        -14.8236  -41.1031   25.9243 H          1 <1>        0.000
@<TRIPOS>BOND
     1    3    2 ar 
     2    3    4 ar 
     3    2    6 ar 
     4    4    1 ar 
     5    6    5 ar 
     6    1    5 ar 
     7    1    7 1  
     8    2    8 1  
     9    5    9 1  
    10   10   11 1  
    11   10   12 1  
    12   10   13 1  
    13   11   14 1  
    14   11   15 1  
    15   10   16 1  
    16    6   11 1  
    17   17   18 1  
    18   17   19 1  
    19   17   20 1  
    20    3   17 1  
    21   21   22 1  
    22   21   23 1  
    23    4   21 1  
    24   25   24 1  
    25   24   31 1  
    26   26   25 2  
    27   32   26 1  
    28   27   28 ar 
    29   27   32 ar 
    30   28   29 ar 
    31   29   30 ar 
    32   30   31 ar 
    33   31   32 ar 
    34   24   33 1  
    35   27   34 1  
    36   28   35 1  
    37   29   36 1  
    38   21   26 1  
    39   37   38 1  
    40   37   39 1  
    41   37   40 1  
    42   38   41 1  
    43   30   37 1  
# Name:          No_7_49
# Creation time: Thu Mar 21 09:38:59 2024


@<TRIPOS>MOLECULE
000002_000001
   48    49     1     1     1
SMALL
USER_CHARGES


@<TRIPOS>ATOM
      1 C17        -9.9380  -44.0780   32.3390 C.ar       1 <1>        0.210
      2 C20        -7.4650  -44.7920   31.3410 C.ar       1 <1>        0.110
      3 C21        -8.5840  -45.5640   31.0680 C.ar       1 <1>        0.230
      4 C16        -9.8330  -45.1980   31.5350 C.ar       1 <1>        0.170
      5 C18        -8.8360  -43.2880   32.6200 C.ar       1 <1>        0.210
      6 C19        -7.6280  -43.6740   32.1130 C.ar       1 <1>        0.060
      7 H         -10.9020  -43.8130   32.7580 H          1 <1>        0.000
      8 H          -8.4780  -46.4683   30.4798 H          1 <1>        0.000
      9 H          -8.9290  -42.3920   33.2230 H          1 <1>        0.000
     10 O1         -6.2150  -45.1430   30.8450 O.3        1 <1>        0.560
     11 H1         -6.3750  -45.3720   29.9370 H          1 <1>        0.000
     12 C1         -6.4070  -42.8150   32.4270 C.3        1 <1>        0.060
     13 H2         -6.0980  -42.2730   31.5210 H          1 <1>        0.000
     14 O3         -6.7360  -41.8780   33.4550 O.3        1 <1>        0.420
     15 H4         -5.5839  -43.4601   32.7681 H          1 <1>        0.000
     16 H6         -7.0042  -42.3383   34.2416 H          1 <1>        0.000
     17 C         -12.2800  -44.2910   30.3080 C.2        1 <1>       -0.020
     18 O         -11.3620  -44.0970   29.5270 O.2        1 <1>        0.040
     19 O         -12.2630  -45.2570   31.2400 O.3        1 <1>        0.320
     20 C5        -11.0620  -46.0530   31.2420 C.3        1 <1>        0.000
     21 H1        -10.9279  -46.5774   30.2844 H          1 <1>        0.000
     22 H2        -11.1590  -46.8050   32.0390 H          1 <1>        0.000
     23 C1        -13.4890  -43.4060   30.2230 C.3        1 <1>       -0.070
     24 C2        -14.6140  -44.1480   29.5060 C.3        1 <1>       -0.010
     25 H4        -13.2371  -42.4933   29.6632 H          1 <1>        0.000
     26 H5        -13.8180  -43.1350   31.2371 H          1 <1>        0.000
     27 H6        -15.5000  -43.4990   29.4440 H          1 <1>        0.000
     28 H7        -14.8661  -45.0604   30.0663 H          1 <1>        0.000
     29 O1        -13.5560  -45.6820   27.8750 O.3        1 <1>        0.130
     30 C1        -14.1660  -44.5180   28.1220 C.2        1 <1>        0.010
     31 C2        -14.3520  -43.7120   27.0750 C.2        1 <1>        0.100
     32 C3        -13.7720  -44.4690   25.9680 C.2        1 <1>        0.080
     33 C4        -13.3460  -45.5880   26.5580 C.2        1 <1>        0.070
     34 H4        -12.8520  -46.3849   26.0041 H          1 <1>        0.000
     35 C         -14.3010  -42.7180   24.3270 C.2        1 <1>        0.040
     36 O         -13.6720  -41.7990   23.8230 O.2        1 <1>        0.560
     37 O         -15.5730  -42.6150   24.7420 O.3        1 <1>        0.190
     38 C4        -13.6830  -44.0760   24.5230 C.3        1 <1>       -0.110
     39 C5        -16.1500  -41.3100   24.5450 C.3        1 <1>        0.070
     40 H1        -15.6009  -40.5409   25.1081 H          1 <1>        0.000
     41 H2        -17.1845  -41.3400   24.9178 H          1 <1>        0.000
     42 H3        -16.1730  -41.0409   23.4787 H          1 <1>        0.000
     43 H4        -14.2222  -44.8172   23.9148 H          1 <1>        0.000
     44 H6        -12.6250  -44.0710   24.2220 H          1 <1>        0.000
     45 C1        -14.9840  -42.3860   27.0340 C.2        1 <1>        0.090
     46 O1        -16.2040  -42.3160   27.0010 O.2        1 <1>        0.080
     47 O2        -14.2050  -41.2990   27.0350 O.3        1 <1>        0.670
     48 H2        -14.6944  -40.4853   27.0070 H          1 <1>        0.000
@<TRIPOS>BOND
     1    3    2 ar 
     2    3    4 ar 
     3    2    6 ar 
     4    4    1 ar 
     5    6    5 ar 
     6    1    5 ar 
     7    1    7 1  
     8    3    8 1  
     9    5    9 1  
    10   10   11 1  
    11    2   10 1  
    12   12   13 1  
    13   12   14 1  
    14   12   15 1  
    15   14   16 1  
    16    6   12 1  
    17   17   18 2  
    18   17   19 1  
    19   19   20 1  
    20   20   21 1  
    21   20   22 1  
    22    4   20 1  
    23   24   23 1  
    24   23   25 1  
    25   23   26 1  
    26   24   27 1  
    27   24   28 1  
    28   17   23 1  
    29   29   30 1  
    30   29   33 1  
    31   30   31 2  
    32   31   32 1  
    33   32   33 2  
    34   33   34 1  
    35   24   30 1  
    36   35   36 2  
    37   35   37 1  
    38   35   38 1  
    39   37   39 1  
    40   39   40 1  
    41   39   41 1  
    42   39   42 1  
    43   38   43 1  
    44   38   44 1  
    45   32   38 1  
    46   45   46 2  
    47   45   47 1  
    48   47   48 1  
    49   31   45 1  
# Name:          No_7_48
# Creation time: Thu Mar 21 09:38:59 2024


@<TRIPOS>MOLECULE
000002_000002
   48    49     1     1     1
SMALL
USER_CHARGES


@<TRIPOS>ATOM
      1 C17        -9.9380  -44.0780   32.3390 C.ar       1 <1>        0.210
      2 C20        -7.4650  -44.7920   31.3410 C.ar       1 <1>        0.110
      3 C21        -8.5840  -45.5640   31.0680 C.ar       1 <1>        0.230
      4 C16        -9.8330  -45.1980   31.5350 C.ar       1 <1>        0.170
      5 C18        -8.8360  -43.2880   32.6200 C.ar       1 <1>        0.210
      6 C19        -7.6280  -43.6740   32.1130 C.ar       1 <1>        0.060
      7 H         -10.9020  -43.8130   32.7580 H          1 <1>        0.000
      8 H          -8.4780  -46.4683   30.4798 H          1 <1>        0.000
      9 H          -8.9290  -42.3920   33.2230 H          1 <1>        0.000
     10 O1         -6.2150  -45.1430   30.8450 O.3        1 <1>        0.560
     11 H1         -6.3750  -45.3720   29.9370 H          1 <1>        0.000
     12 C1         -6.4070  -42.8150   32.4270 C.3        1 <1>        0.060
     13 H2         -6.0980  -42.2730   31.5210 H          1 <1>        0.000
     14 O3         -6.7360  -41.8780   33.4550 O.3        1 <1>        0.420
     15 H4         -5.5839  -43.4601   32.7681 H          1 <1>        0.000
     16 H6         -7.0042  -42.3383   34.2416 H          1 <1>        0.000
     17 C         -12.2800  -44.2910   30.3080 C.2        1 <1>       -0.020
     18 O         -11.3620  -44.0970   29.5270 O.2        1 <1>        0.040
     19 O         -12.2630  -45.2570   31.2400 O.3        1 <1>        0.320
     20 C5        -11.0620  -46.0530   31.2420 C.3        1 <1>        0.000
     21 H1        -10.9279  -46.5774   30.2844 H          1 <1>        0.000
     22 H2        -11.1590  -46.8050   32.0390 H          1 <1>        0.000
     23 C1        -13.4890  -43.4060   30.2230 C.3        1 <1>       -0.070
     24 C2        -14.6140  -44.1480   29.5060 C.3        1 <1>       -0.010
     25 H4        -13.2371  -42.4933   29.6632 H          1 <1>        0.000
     26 H5        -13.8180  -43.1350   31.2371 H          1 <1>        0.000
     27 H6        -15.5000  -43.4990   29.4440 H          1 <1>        0.000
     28 H7        -14.8661  -45.0604   30.0663 H          1 <1>        0.000
     29 O1        -13.5560  -45.6820   27.8750 O.3        1 <1>        0.130
     30 C1        -14.1660  -44.5180   28.1220 C.2        1 <1>        0.010
     31 C2        -14.3520  -43.7120   27.0750 C.2        1 <1>        0.100
     32 C3        -13.7720  -44.4690   25.9680 C.2        1 <1>        0.080
     33 C4        -13.3460  -45.5880   26.5580 C.2        1 <1>        0.070
     34 H4        -12.8520  -46.3849   26.0041 H          1 <1>        0.000
     35 C         -14.3010  -42.7180   24.3270 C.2        1 <1>        0.040
     36 O         -13.6720  -41.7990   23.8230 O.2        1 <1>        0.560
     37 O         -15.5730  -42.6150   24.7420 O.3        1 <1>        0.190
     38 C4        -13.6830  -44.0760   24.5230 C.3        1 <1>       -0.110
     39 C5        -16.1500  -41.3100   24.5450 C.3        1 <1>        0.070
     40 H1        -15.6009  -40.5409   25.1081 H          1 <1>        0.000
     41 H2        -17.1845  -41.3400   24.9178 H          1 <1>        0.000
     42 H3        -16.1730  -41.0409   23.4787 H          1 <1>        0.000
     43 H4        -14.2222  -44.8172   23.9148 H          1 <1>        0.000
     44 H6        -12.6250  -44.0710   24.2220 H          1 <1>        0.000
     45 C1        -14.9840  -42.3860   27.0340 C.2        1 <1>        0.090
     46 O1        -14.2790  -41.4020   26.8670 O.2        1 <1>        0.080
     47 O2        -16.3100  -42.2990   27.1810 O.3        1 <1>        0.180
     48 H2        -16.6349  -41.4072   27.1420 H          1 <1>        0.000
@<TRIPOS>BOND
     1    3    2 ar 
     2    3    4 ar 
     3    2    6 ar 
     4    4    1 ar 
     5    6    5 ar 
     6    1    5 ar 
     7    1    7 1  
     8    3    8 1  
     9    5    9 1  
    10   10   11 1  
    11    2   10 1  
    12   12   13 1  
    13   12   14 1  
    14   12   15 1  
    15   14   16 1  
    16    6   12 1  
    17   17   18 2  
    18   17   19 1  
    19   19   20 1  
    20   20   21 1  
    21   20   22 1  
    22    4   20 1  
    23   24   23 1  
    24   23   25 1  
    25   23   26 1  
    26   24   27 1  
    27   24   28 1  
    28   17   23 1  
    29   29   30 1  
    30   29   33 1  
    31   30   31 2  
    32   31   32 1  
    33   32   33 2  
    34   33   34 1  
    35   24   30 1  
    36   35   36 2  
    37   35   37 1  
    38   35   38 1  
    39   37   39 1  
    40   39   40 1  
    41   39   41 1  
    42   39   42 1  
    43   38   43 1  
    44   38   44 1  
    45   32   38 1  
    46   45   46 2  
    47   45   47 1  
    48   47   48 1  
    49   31   45 1  
# Name:          No_7_142
# Creation time: Thu Mar 21 09:38:59 2024


@<TRIPOS>MOLECULE
000002_000003
   49    50     1     1     1
SMALL
USER_CHARGES


@<TRIPOS>ATOM
      1 C17        -9.9380  -44.0780   32.3390 C.ar       1 <1>        0.210
      2 C20        -7.4650  -44.7920   31.3410 C.ar       1 <1>        0.110
      3 C21        -8.5840  -45.5640   31.0680 C.ar       1 <1>        0.230
      4 C16        -9.8330  -45.1980   31.5350 C.ar       1 <1>        0.170
      5 C18        -8.8360  -43.2880   32.6200 C.ar       1 <1>        0.210
      6 C19        -7.6280  -43.6740   32.1130 C.ar       1 <1>        0.060
      7 H         -10.9020  -43.8130   32.7580 H          1 <1>        0.000
      8 H          -8.4780  -46.4683   30.4798 H          1 <1>        0.000
      9 H          -8.9290  -42.3920   33.2230 H          1 <1>        0.000
     10 O1         -6.2150  -45.1430   30.8450 O.3        1 <1>        0.560
     11 H1         -6.3750  -45.3720   29.9370 H          1 <1>        0.000
     12 C1         -6.4070  -42.8150   32.4270 C.3        1 <1>        0.060
     13 H2         -6.0980  -42.2730   31.5210 H          1 <1>        0.000
     14 O3         -6.7360  -41.8780   33.4550 O.3        1 <1>        0.420
     15 H4         -5.5839  -43.4601   32.7681 H          1 <1>        0.000
     16 H6         -7.0042  -42.3383   34.2416 H          1 <1>        0.000
     17 C         -12.2800  -44.2910   30.3080 C.2        1 <1>       -0.020
     18 O         -11.3620  -44.0970   29.5270 O.2        1 <1>        0.040
     19 O         -12.2630  -45.2570   31.2400 O.3        1 <1>        0.320
     20 C5        -11.0620  -46.0530   31.2420 C.3        1 <1>        0.000
     21 H1        -10.9279  -46.5774   30.2844 H          1 <1>        0.000
     22 H2        -11.1590  -46.8050   32.0390 H          1 <1>        0.000
     23 C1        -13.4890  -43.4060   30.2230 C.3        1 <1>       -0.070
     24 C2        -14.6140  -44.1480   29.5060 C.3        1 <1>       -0.010
     25 H4        -13.2371  -42.4933   29.6632 H          1 <1>        0.000
     26 H5        -13.8180  -43.1350   31.2371 H          1 <1>        0.000
     27 H6        -15.5000  -43.4990   29.4440 H          1 <1>        0.000
     28 H7        -14.8661  -45.0604   30.0663 H          1 <1>        0.000
     29 O1        -13.5560  -45.6820   27.8750 O.3        1 <1>        0.130
     30 C1        -14.1660  -44.5180   28.1220 C.2        1 <1>        0.010
     31 C2        -14.3520  -43.7120   27.0750 C.2        1 <1>        0.100
     32 C3        -13.7720  -44.4690   25.9680 C.2        1 <1>        0.080
     33 C4        -13.3460  -45.5880   26.5580 C.2        1 <1>        0.070
     34 H4        -12.8520  -46.3849   26.0041 H          1 <1>        0.000
     35 C         -14.3010  -42.7180   24.3270 C.2        1 <1>        0.040
     36 O         -13.6720  -41.7990   23.8230 O.2        1 <1>        0.560
     37 O         -15.5730  -42.6150   24.7420 O.3        1 <1>        0.190
     38 C4        -13.6830  -44.0760   24.5230 C.3        1 <1>       -0.110
     39 C5        -16.1500  -41.3100   24.5450 C.3        1 <1>        0.070
     40 H1        -15.6009  -40.5409   25.1081 H          1 <1>        0.000
     41 H2        -17.1845  -41.3400   24.9178 H          1 <1>        0.000
     42 H3        -16.1730  -41.0409   23.4787 H          1 <1>        0.000
     43 H4        -14.2222  -44.8172   23.9148 H          1 <1>        0.000
     44 H6        -12.6250  -44.0710   24.2220 H          1 <1>        0.000
     45 C1        -14.9840  -42.3860   27.0340 C.2        1 <1>        0.090
     46 O1        -16.1960  -42.3440   27.1720 O.2        1 <1>        0.080
     47 N1        -14.2280  -41.2830   26.8510 N.am       1 <1>        0.070
     48 H2        -13.2370  -41.3610   26.7420 H          1 <1>        0.000
     49 H3        -14.6557  -40.3795   26.8230 H          1 <1>        0.000
@<TRIPOS>BOND
     1    3    2 ar 
     2    3    4 ar 
     3    2    6 ar 
     4    4    1 ar 
     5    6    5 ar 
     6    1    5 ar 
     7    1    7 1  
     8    3    8 1  
     9    5    9 1  
    10   10   11 1  
    11    2   10 1  
    12   12   13 1  
    13   12   14 1  
    14   12   15 1  
    15   14   16 1  
    16    6   12 1  
    17   17   18 2  
    18   17   19 1  
    19   19   20 1  
    20   20   21 1  
    21   20   22 1  
    22    4   20 1  
    23   24   23 1  
    24   23   25 1  
    25   23   26 1  
    26   24   27 1  
    27   24   28 1  
    28   17   23 1  
    29   29   30 1  
    30   29   33 1  
    31   30   31 2  
    32   31   32 1  
    33   32   33 2  
    34   33   34 1  
    35   24   30 1  
    36   35   36 2  
    37   35   37 1  
    38   35   38 1  
    39   37   39 1  
    40   39   40 1  
    41   39   41 1  
    42   39   42 1  
    43   38   43 1  
    44   38   44 1  
    45   32   38 1  
    46   45   46 2  
    47   45   47 am 
    48   47   48 1  
    49   47   49 1  
    50   31   45 1  
# Name:          No_7_141
# Creation time: Thu Mar 21 09:38:59 2024


@<TRIPOS>MOLECULE
000002_000004
   49    50     1     1     1
SMALL
USER_CHARGES


@<TRIPOS>ATOM
      1 C17        -9.9380  -44.0780   32.3390 C.ar       1 <1>        0.210
      2 C20        -7.4650  -44.7920   31.3410 C.ar       1 <1>        0.110
      3 C21        -8.5840  -45.5640   31.0680 C.ar       1 <1>        0.230
      4 C16        -9.8330  -45.1980   31.5350 C.ar       1 <1>        0.170
      5 C18        -8.8360  -43.2880   32.6200 C.ar       1 <1>        0.210
      6 C19        -7.6280  -43.6740   32.1130 C.ar       1 <1>        0.060
      7 H         -10.9020  -43.8130   32.7580 H          1 <1>        0.000
      8 H          -8.4780  -46.4683   30.4798 H          1 <1>        0.000
      9 H          -8.9290  -42.3920   33.2230 H          1 <1>        0.000
     10 O1         -6.2150  -45.1430   30.8450 O.3        1 <1>        0.560
     11 H1         -6.3750  -45.3720   29.9370 H          1 <1>        0.000
     12 C1         -6.4070  -42.8150   32.4270 C.3        1 <1>        0.060
     13 H2         -6.0980  -42.2730   31.5210 H          1 <1>        0.000
     14 O3         -6.7360  -41.8780   33.4550 O.3        1 <1>        0.420
     15 H4         -5.5839  -43.4601   32.7681 H          1 <1>        0.000
     16 H6         -7.0042  -42.3383   34.2416 H          1 <1>        0.000
     17 C         -12.2800  -44.2910   30.3080 C.2        1 <1>       -0.020
     18 O         -11.3620  -44.0970   29.5270 O.2        1 <1>        0.040
     19 O         -12.2630  -45.2570   31.2400 O.3        1 <1>        0.320
     20 C5        -11.0620  -46.0530   31.2420 C.3        1 <1>        0.000
     21 H1        -10.9279  -46.5774   30.2844 H          1 <1>        0.000
     22 H2        -11.1590  -46.8050   32.0390 H          1 <1>        0.000
     23 C1        -13.4890  -43.4060   30.2230 C.3        1 <1>       -0.070
     24 C2        -14.6140  -44.1480   29.5060 C.3        1 <1>       -0.010
     25 H4        -13.2371  -42.4933   29.6632 H          1 <1>        0.000
     26 H5        -13.8180  -43.1350   31.2371 H          1 <1>        0.000
     27 H6        -15.5000  -43.4990   29.4440 H          1 <1>        0.000
     28 H7        -14.8661  -45.0604   30.0663 H          1 <1>        0.000
     29 O1        -13.5560  -45.6820   27.8750 O.3        1 <1>        0.130
     30 C1        -14.1660  -44.5180   28.1220 C.2        1 <1>        0.010
     31 C2        -14.3520  -43.7120   27.0750 C.2        1 <1>        0.100
     32 C3        -13.7720  -44.4690   25.9680 C.2        1 <1>        0.080
     33 C4        -13.3460  -45.5880   26.5580 C.2        1 <1>        0.070
     34 H4        -12.8520  -46.3849   26.0041 H          1 <1>        0.000
     35 C         -14.3010  -42.7180   24.3270 C.2        1 <1>        0.040
     36 O         -13.6720  -41.7990   23.8230 O.2        1 <1>        0.560
     37 O         -15.5730  -42.6150   24.7420 O.3        1 <1>        0.190
     38 C4        -13.6830  -44.0760   24.5230 C.3        1 <1>       -0.110
     39 C5        -16.1500  -41.3100   24.5450 C.3        1 <1>        0.070
     40 H1        -15.6009  -40.5409   25.1081 H          1 <1>        0.000
     41 H2        -17.1845  -41.3400   24.9178 H          1 <1>        0.000
     42 H3        -16.1730  -41.0409   23.4787 H          1 <1>        0.000
     43 H4        -14.2222  -44.8172   23.9148 H          1 <1>        0.000
     44 H6        -12.6250  -44.0710   24.2220 H          1 <1>        0.000
     45 C1        -14.9840  -42.3860   27.0340 C.2        1 <1>        0.090
     46 O1        -14.2500  -41.4260   26.8660 O.2        1 <1>        0.080
     47 N1        -16.3210  -42.2700   27.1800 N.am       1 <1>        0.090
     48 H2        -16.8871  -43.0831   27.3160 H          1 <1>        0.000
     49 H3        -16.7532  -41.3686   27.1530 H          1 <1>        0.000
@<TRIPOS>BOND
     1    3    2 ar 
     2    3    4 ar 
     3    2    6 ar 
     4    4    1 ar 
     5    6    5 ar 
     6    1    5 ar 
     7    1    7 1  
     8    3    8 1  
     9    5    9 1  
    10   10   11 1  
    11    2   10 1  
    12   12   13 1  
    13   12   14 1  
    14   12   15 1  
    15   14   16 1  
    16    6   12 1  
    17   17   18 2  
    18   17   19 1  
    19   19   20 1  
    20   20   21 1  
    21   20   22 1  
    22    4   20 1  
    23   24   23 1  
    24   23   25 1  
    25   23   26 1  
    26   24   27 1  
    27   24   28 1  
    28   17   23 1  
    29   29   30 1  
    30   29   33 1  
    31   30   31 2  
    32   31   32 1  
    33   32   33 2  
    34   33   34 1  
    35   24   30 1  
    36   35   36 2  
    37   35   37 1  
    38   35   38 1  
    39   37   39 1  
    40   39   40 1  
    41   39   41 1  
    42   39   42 1  
    43   38   43 1  
    44   38   44 1  
    45   32   38 1  
    46   45   46 2  
    47   45   47 am 
    48   47   48 1  
    49   47   49 1  
    50   31   45 1  
# Name:          No_7_9
# Creation time: Thu Mar 21 09:38:59 2024


@<TRIPOS>MOLECULE
000002_000005
   40    41     1     1     1
SMALL
USER_CHARGES


@<TRIPOS>ATOM
      1 C17        -9.9380  -44.0780   32.3390 C.ar       1 <1>        0.210
      2 C20        -7.4650  -44.7920   31.3410 C.ar       1 <1>        0.110
      3 C21        -8.5840  -45.5640   31.0680 C.ar       1 <1>        0.230
      4 C16        -9.8330  -45.1980   31.5350 C.ar       1 <1>        0.170
      5 C18        -8.8360  -43.2880   32.6200 C.ar       1 <1>        0.210
      6 C19        -7.6280  -43.6740   32.1130 C.ar       1 <1>        0.060
      7 H         -10.9020  -43.8130   32.7580 H          1 <1>        0.000
      8 H          -8.4780  -46.4683   30.4798 H          1 <1>        0.000
      9 H          -8.9290  -42.3920   33.2230 H          1 <1>        0.000
     10 O1         -6.2150  -45.1430   30.8450 O.3        1 <1>        0.560
     11 H1         -6.3750  -45.3720   29.9370 H          1 <1>        0.000
     12 C1         -6.4070  -42.8150   32.4270 C.3        1 <1>        0.060
     13 H2         -6.0980  -42.2730   31.5210 H          1 <1>        0.000
     14 O3         -6.7360  -41.8780   33.4550 O.3        1 <1>        0.420
     15 H4         -5.5839  -43.4601   32.7681 H          1 <1>        0.000
     16 H6         -7.0042  -42.3383   34.2416 H          1 <1>        0.000
     17 C         -12.2800  -44.2910   30.3080 C.2        1 <1>       -0.020
     18 O         -11.3620  -44.0970   29.5270 O.2        1 <1>        0.040
     19 O         -12.2630  -45.2570   31.2400 O.3        1 <1>        0.320
     20 C5        -11.0620  -46.0530   31.2420 C.3        1 <1>        0.000
     21 H1        -10.9279  -46.5774   30.2844 H          1 <1>        0.000
     22 H2        -11.1590  -46.8050   32.0390 H          1 <1>        0.000
     23 C1        -13.4890  -43.4060   30.2230 C.3        1 <1>       -0.070
     24 C2        -14.6140  -44.1480   29.5060 C.3        1 <1>       -0.010
     25 H4        -13.2371  -42.4933   29.6632 H          1 <1>        0.000
     26 H5        -13.8180  -43.1350   31.2371 H          1 <1>        0.000
     27 H6        -15.5000  -43.4990   29.4440 H          1 <1>        0.000
     28 H7        -14.8661  -45.0604   30.0663 H          1 <1>        0.000
     29 O1        -13.5560  -45.6820   27.8750 O.3        1 <1>        0.130
     30 C1        -14.1660  -44.5180   28.1220 C.2        1 <1>        0.010
     31 C2        -14.3520  -43.7120   27.0750 C.2        1 <1>        0.060
     32 C3        -13.7720  -44.4690   25.9680 C.2        1 <1>        0.120
     33 C4        -13.3460  -45.5880   26.5580 C.2        1 <1>        0.070
     34 H3        -13.7069  -44.1837   24.9190 H          1 <1>        0.000
     35 H4        -12.8520  -46.3849   26.0041 H          1 <1>        0.000
     36 C1        -14.9970  -42.3580   27.0330 C.3        1 <1>        0.050
     37 H2        -15.7645  -42.2940   27.8184 H          1 <1>        0.000
     38 O3        -14.0060  -41.3510   27.2520 O.3        1 <1>        0.810
     39 H4        -15.4652  -42.2049   26.0495 H          1 <1>        0.000
     40 H6        -13.3386  -41.3990   26.5776 H          1 <1>        0.000
@<TRIPOS>BOND
     1    3    2 ar 
     2    3    4 ar 
     3    2    6 ar 
     4    4    1 ar 
     5    6    5 ar 
     6    1    5 ar 
     7    1    7 1  
     8    3    8 1  
     9    5    9 1  
    10   10   11 1  
    11    2   10 1  
    12   12   13 1  
    13   12   14 1  
    14   12   15 1  
    15   14   16 1  
    16    6   12 1  
    17   17   18 2  
    18   17   19 1  
    19   19   20 1  
    20   20   21 1  
    21   20   22 1  
    22    4   20 1  
    23   24   23 1  
    24   23   25 1  
    25   23   26 1  
    26   24   27 1  
    27   24   28 1  
    28   17   23 1  
    29   29   30 1  
    30   29   33 1  
    31   30   31 2  
    32   31   32 1  
    33   32   33 2  
    34   32   34 1  
    35   33   35 1  
    36   24   30 1  
    37   36   37 1  
    38   36   38 1  
    39   36   39 1  
    40   38   40 1  
    41   31   36 1  
# Name:          No_6_96
# Creation time: Thu Mar 21 09:38:59 2024


@<TRIPOS>MOLECULE
000002_000006
   40    41     1     1     1
SMALL
USER_CHARGES


@<TRIPOS>ATOM
      1 C17        -9.9380  -44.0780   32.3390 C.ar       1 <1>        0.210
      2 C20        -7.4650  -44.7920   31.3410 C.ar       1 <1>        0.110
      3 C21        -8.5840  -45.5640   31.0680 C.ar       1 <1>        0.230
      4 C16        -9.8330  -45.1980   31.5350 C.ar       1 <1>        0.170
      5 C18        -8.8360  -43.2880   32.6200 C.ar       1 <1>        0.210
      6 C19        -7.6280  -43.6740   32.1130 C.ar       1 <1>        0.060
      7 H         -10.9020  -43.8130   32.7580 H          1 <1>        0.000
      8 H          -8.4780  -46.4683   30.4798 H          1 <1>        0.000
      9 H          -8.9290  -42.3920   33.2230 H          1 <1>        0.000
     10 O1         -6.2150  -45.1430   30.8450 O.3        1 <1>        0.560
     11 H1         -6.3750  -45.3720   29.9370 H          1 <1>        0.000
     12 C1         -6.4070  -42.8150   32.4270 C.3        1 <1>        0.060
     13 H2         -6.0980  -42.2730   31.5210 H          1 <1>        0.000
     14 O3         -6.7360  -41.8780   33.4550 O.3        1 <1>        0.420
     15 H4         -5.5839  -43.4601   32.7681 H          1 <1>        0.000
     16 H6         -7.0042  -42.3383   34.2416 H          1 <1>        0.000
     17 C         -12.2800  -44.2910   30.3080 C.2        1 <1>       -0.020
     18 O         -11.3620  -44.0970   29.5270 O.2        1 <1>        0.040
     19 O         -12.2630  -45.2570   31.2400 O.3        1 <1>        0.320
     20 C5        -11.0620  -46.0530   31.2420 C.3        1 <1>        0.000
     21 H1        -10.9279  -46.5774   30.2844 H          1 <1>        0.000
     22 H2        -11.1590  -46.8050   32.0390 H          1 <1>        0.000
     23 C1        -13.4890  -43.4060   30.2230 C.3        1 <1>       -0.070
     24 C2        -14.6140  -44.1480   29.5060 C.3        1 <1>       -0.010
     25 H4        -13.2371  -42.4933   29.6632 H          1 <1>        0.000
     26 H5        -13.8180  -43.1350   31.2371 H          1 <1>        0.000
     27 H6        -15.5000  -43.4990   29.4440 H          1 <1>        0.000
     28 H7        -14.8661  -45.0604   30.0663 H          1 <1>        0.000
     29 O1        -13.5560  -45.6820   27.8750 O.3        1 <1>        0.130
     30 C1        -14.1660  -44.5180   28.1220 C.2        1 <1>        0.010
     31 C2        -14.3520  -43.7120   27.0750 C.2        1 <1>        0.060
     32 C3        -13.7720  -44.4690   25.9680 C.2        1 <1>        0.120
     33 C4        -13.3460  -45.5880   26.5580 C.2        1 <1>        0.070
     34 H3        -13.7069  -44.1837   24.9190 H          1 <1>        0.000
     35 H4        -12.8520  -46.3849   26.0041 H          1 <1>        0.000
     36 C1        -14.9970  -42.3580   27.0330 C.3        1 <1>        0.050
     37 H2        -15.7645  -42.2940   27.8184 H          1 <1>        0.000
     38 O3        -14.0060  -41.3510   27.2520 O.3        1 <1>        0.810
     39 H4        -15.4652  -42.2049   26.0495 H          1 <1>        0.000
     40 H6        -13.3386  -41.3990   26.5776 H          1 <1>        0.000
@<TRIPOS>BOND
     1    3    2 ar 
     2    3    4 ar 
     3    2    6 ar 
     4    4    1 ar 
     5    6    5 ar 
     6    1    5 ar 
     7    1    7 1  
     8    3    8 1  
     9    5    9 1  
    10   10   11 1  
    11    2   10 1  
    12   12   13 1  
    13   12   14 1  
    14   12   15 1  
    15   14   16 1  
    16    6   12 1  
    17   17   18 2  
    18   17   19 1  
    19   19   20 1  
    20   20   21 1  
    21   20   22 1  
    22    4   20 1  
    23   24   23 1  
    24   23   25 1  
    25   23   26 1  
    26   24   27 1  
    27   24   28 1  
    28   17   23 1  
    29   29   30 1  
    30   29   33 1  
    31   30   31 2  
    32   31   32 1  
    33   32   33 2  
    34   32   34 1  
    35   33   35 1  
    36   24   30 1  
    37   36   37 1  
    38   36   38 1  
    39   36   39 1  
    40   38   40 1  
    41   31   36 1  
# Name:          No_7_167
# Creation time: Thu Mar 21 09:38:59 2024


@<TRIPOS>MOLECULE
000003_000001
   55    56     1     1     1
SMALL
USER_CHARGES


@<TRIPOS>ATOM
      1 C17        -9.9380  -44.0780   32.3390 C.ar       1 <1>        0.210
      2 C20        -7.4650  -44.7920   31.3410 C.ar       1 <1>        0.110
      3 C21        -8.5840  -45.5640   31.0680 C.ar       1 <1>        0.230
      4 C16        -9.8330  -45.1980   31.5350 C.ar       1 <1>        0.170
      5 C18        -8.8360  -43.2880   32.6200 C.ar       1 <1>        0.210
      6 C19        -7.6280  -43.6740   32.1130 C.ar       1 <1>        0.060
      7 H         -10.9020  -43.8130   32.7580 H          1 <1>        0.000
      8 H          -8.4780  -46.4683   30.4798 H          1 <1>        0.000
      9 H          -8.9290  -42.3920   33.2230 H          1 <1>        0.000
     10 O1         -6.2150  -45.1430   30.8450 O.3        1 <1>        0.560
     11 H1         -6.3750  -45.3720   29.9370 H          1 <1>        0.000
     12 C1         -6.4070  -42.8150   32.4270 C.3        1 <1>        0.060
     13 H2         -6.0980  -42.2730   31.5210 H          1 <1>        0.000
     14 O3         -6.7360  -41.8780   33.4550 O.3        1 <1>        0.420
     15 H4         -5.5839  -43.4601   32.7681 H          1 <1>        0.000
     16 H6         -7.0042  -42.3383   34.2416 H          1 <1>        0.000
     17 C         -12.2800  -44.2910   30.3080 C.2        1 <1>       -0.020
     18 O         -11.3620  -44.0970   29.5270 O.2        1 <1>        0.040
     19 O         -12.2630  -45.2570   31.2400 O.3        1 <1>        0.320
     20 C5        -11.0620  -46.0530   31.2420 C.3        1 <1>        0.000
     21 H1        -10.9279  -46.5774   30.2844 H          1 <1>        0.000
     22 H2        -11.1590  -46.8050   32.0390 H          1 <1>        0.000
     23 C1        -13.4890  -43.4060   30.2230 C.3        1 <1>       -0.070
     24 C2        -14.6140  -44.1480   29.5060 C.3        1 <1>       -0.010
     25 H4        -13.2371  -42.4933   29.6632 H          1 <1>        0.000
     26 H5        -13.8180  -43.1350   31.2371 H          1 <1>        0.000
     27 H6        -15.5000  -43.4990   29.4440 H          1 <1>        0.000
     28 H7        -14.8661  -45.0604   30.0663 H          1 <1>        0.000
     29 O1        -13.5560  -45.6820   27.8750 O.3        1 <1>        0.130
     30 C1        -14.1660  -44.5180   28.1220 C.2        1 <1>        0.010
     31 C2        -14.3520  -43.7120   27.0750 C.2        1 <1>        0.100
     32 C3        -13.7720  -44.4690   25.9680 C.2        1 <1>        0.080
     33 C4        -13.3460  -45.5880   26.5580 C.2        1 <1>        0.070
     34 H2        -14.8203  -42.7293   27.0450 H          1 <1>        0.000
     35 H4        -12.8520  -46.3849   26.0041 H          1 <1>        0.000
     36 C         -14.3010  -42.7180   24.3270 C.2        1 <1>        0.040
     37 O         -13.6720  -41.7990   23.8230 O.2        1 <1>        0.560
     38 O         -15.5730  -42.6150   24.7420 O.3        1 <1>        0.150
     39 C4        -13.6830  -44.0760   24.5230 C.3        1 <1>       -0.110
     40 C5        -16.1500  -41.3100   24.5450 C.3        1 <1>       -0.010
     41 H1        -15.6009  -40.5409   25.1081 H          1 <1>        0.000
     42 H3        -16.1730  -41.0409   23.4787 H          1 <1>        0.000
     43 H4        -14.2222  -44.8172   23.9148 H          1 <1>        0.000
     44 H6        -12.6250  -44.0710   24.2220 H          1 <1>        0.000
     45 N         -18.8520  -41.8630   27.1130 N.am       1 <1>        0.080
     46 C         -17.6420  -41.7750   26.5140 C.2        1 <1>        0.050
     47 O         -16.5970  -42.0230   27.0960 O.2        1 <1>        0.080
     48 C4        -18.9410  -42.2690   28.5130 C.3        1 <1>        0.100
     49 C5        -17.5990  -41.3520   25.0670 C.3        1 <1>       -0.000
     50 H2        -19.6941  -41.6540   26.6159 H          1 <1>        0.000
     51 H3        -18.3871  -41.5601   29.1459 H          1 <1>        0.000
     52 H4        -18.5117  -43.2736   28.6411 H          1 <1>        0.000
     53 H5        -19.9866  -42.2940   28.8539 H          1 <1>        0.000
     54 H1        -18.1723  -42.0644   24.4556 H          1 <1>        0.000
     55 H7        -18.0409  -40.3503   24.9610 H          1 <1>        0.000
@<TRIPOS>BOND
     1    3    2 ar 
     2    3    4 ar 
     3    2    6 ar 
     4    4    1 ar 
     5    6    5 ar 
     6    1    5 ar 
     7    1    7 1  
     8    3    8 1  
     9    5    9 1  
    10   10   11 1  
    11    2   10 1  
    12   12   13 1  
    13   12   14 1  
    14   12   15 1  
    15   14   16 1  
    16    6   12 1  
    17   17   18 2  
    18   17   19 1  
    19   19   20 1  
    20   20   21 1  
    21   20   22 1  
    22    4   20 1  
    23   24   23 1  
    24   23   25 1  
    25   23   26 1  
    26   24   27 1  
    27   24   28 1  
    28   17   23 1  
    29   29   30 1  
    30   29   33 1  
    31   30   31 2  
    32   31   32 1  
    33   32   33 2  
    34   31   34 1  
    35   33   35 1  
    36   24   30 1  
    37   36   37 2  
    38   36   38 1  
    39   36   39 1  
    40   38   40 1  
    41   40   41 1  
    42   40   42 1  
    43   39   43 1  
    44   39   44 1  
    45   32   39 1  
    46   45   46 am 
    47   46   47 2  
    48   45   48 1  
    49   46   49 1  
    50   45   50 1  
    51   48   51 1  
    52   48   52 1  
    53   48   53 1  
    54   49   54 1  
    55   49   55 1  
    56   40   49 1  

# Name:          No_6_51
# Creation time: Thu Mar 21 10:00:55 2024


@<TRIPOS>MOLECULE
000001_000001
   45    47     1     1     1
SMALL
USER_CHARGES


@<TRIPOS>ATOM
      1 C17        -9.9380  -44.0780   32.3390 C.ar       1 <1>        0.210
      2 C20        -7.4650  -44.7920   31.3410 C.ar       1 <1>        0.110
      3 C21        -8.5840  -45.5640   31.0680 C.ar       1 <1>        0.230
      4 C16        -9.8330  -45.1980   31.5350 C.ar       1 <1>        0.170
      5 C18        -8.8360  -43.2880   32.6200 C.ar       1 <1>        0.160
      6 C19        -7.6280  -43.6740   32.1130 C.ar       1 <1>        0.100
      7 H          -6.7601  -43.0640   32.3360 H          1 <1>        0.000
      8 H         -10.9020  -43.8130   32.7580 H          1 <1>        0.000
      9 H          -8.4780  -46.4683   30.4798 H          1 <1>        0.000
     10 N1         -6.2510  -45.1330   30.8600 N.pl3      1 <1>        0.560
     11 H1         -6.1450  -45.9777   30.2802 H          1 <1>        0.000
     12 H2         -5.4297  -44.5488   31.0721 H          1 <1>        0.000
     13 C1        -11.0620  -46.0530   31.2420 C.3        1 <1>        0.000
     14 C2        -11.0560  -46.4650   29.7730 C.3        1 <1>       -0.170
     15 H3        -11.0430  -46.9518   31.8759 H          1 <1>        0.000
     16 H5        -11.9710  -45.4720   31.4570 H          1 <1>        0.000
     17 H7        -11.9419  -47.0819   29.5620 H          1 <1>        0.000
     18 H8        -10.1469  -47.0461   29.5590 H          1 <1>        0.000
     19 C1         -9.8870  -44.5870   28.5420 C.ar       1 <1>        0.200
     20 C2        -11.0830  -45.2190   28.8950 C.ar       1 <1>        0.150
     21 C3        -12.3030  -44.7080   28.4430 C.ar       1 <1>        0.200
     22 C4        -12.3280  -43.5660   27.6370 C.ar       1 <1>        0.180
     23 C5        -11.1320  -42.9340   27.2840 C.ar       1 <1>        0.100
     24 C6         -9.9110  -43.4440   27.7370 C.ar       1 <1>        0.070
     25 H1         -8.9404  -44.9828   28.8918 H          1 <1>        0.000
     26 H3        -13.2307  -45.1978   28.7159 H          1 <1>        0.000
     27 H5        -11.1500  -42.0479   26.6599 H          1 <1>        0.000
     28 H6         -8.9838  -42.9539   27.4629 H          1 <1>        0.000
     29 O1        -13.9320  -41.7150   26.9400 O.3        1 <1>        0.970
     30 C1        -13.6460  -43.0140   27.1490 C.2        1 <1>        0.090
     31 N1        -14.6750  -43.6910   26.8640 N.2        1 <1>        0.090
     32 C2        -15.7940  -42.9140   26.4220 C.2        1 <1>        0.070
     33 C3        -15.2120  -41.7170   26.5130 C.2        1 <1>        0.090
     34 H2        -16.7954  -43.2111   26.1139 H          1 <1>        0.000
     35 H3        -15.7330  -40.7950   26.2590 H          1 <1>        0.000
     36 C1         -8.7590  -42.3800   34.9380 C.3        1 <1>        0.020
     37 C2         -8.9670  -42.0280   33.4680 C.3        1 <1>        0.030
     38 H3         -9.5176  -43.1126   35.2508 H          1 <1>        0.000
     39 H4         -7.7561  -42.8110   35.0740 H          1 <1>        0.000
     40 H6         -8.2082  -41.2952   33.1561 H          1 <1>        0.000
     41 H7         -9.9700  -41.5970   33.3330 H          1 <1>        0.000
     42 N1         -8.8860  -41.1650   35.7560 N.4        1 <1>        0.610
     43 H1         -9.2711  -40.4207   35.1958 H          1 <1>        0.000
     44 H2         -9.4952  -41.3470   36.5382 H          1 <1>        0.000
     45 H4         -7.9767  -40.8932   36.0957 H          1 <1>        0.000
@<TRIPOS>BOND
     1    3    2 ar 
     2    3    4 ar 
     3    2    6 ar 
     4    4    1 ar 
     5    6    7 1  
     6    6    5 ar 
     7    1    5 ar 
     8    1    8 1  
     9    3    9 1  
    10   10   11 1  
    11   10   12 1  
    12    2   10 1  
    13   14   13 1  
    14   13   15 1  
    15   13   16 1  
    16   14   17 1  
    17   14   18 1  
    18    4   13 1  
    19   19   20 ar 
    20   19   24 ar 
    21   20   21 ar 
    22   21   22 ar 
    23   22   23 ar 
    24   23   24 ar 
    25   19   25 1  
    26   21   26 1  
    27   23   27 1  
    28   24   28 1  
    29   14   20 1  
    30   29   30 1  
    31   29   33 1  
    32   30   31 2  
    33   31   32 1  
    34   32   33 2  
    35   32   34 1  
    36   33   35 1  
    37   22   30 1  
    38   37   36 1  
    39   36   38 1  
    40   36   39 1  
    41   37   40 1  
    42   37   41 1  
    43    5   37 1  
    44   42   43 1  
    45   42   44 1  
    46   42   45 1  
    47   36   42 1  
# Name:          No_6_52
# Creation time: Thu Mar 21 10:00:55 2024


@<TRIPOS>MOLECULE
000001_000002
   45    47     1     1     1
SMALL
USER_CHARGES


@<TRIPOS>ATOM
      1 C17        -9.9380  -44.0780   32.3390 C.ar       1 <1>        0.210
      2 C20        -7.4650  -44.7920   31.3410 C.ar       1 <1>        0.110
      3 C21        -8.5840  -45.5640   31.0680 C.ar       1 <1>        0.230
      4 C16        -9.8330  -45.1980   31.5350 C.ar       1 <1>        0.170
      5 C18        -8.8360  -43.2880   32.6200 C.ar       1 <1>        0.160
      6 C19        -7.6280  -43.6740   32.1130 C.ar       1 <1>        0.100
      7 H          -6.7601  -43.0640   32.3360 H          1 <1>        0.000
      8 H         -10.9020  -43.8130   32.7580 H          1 <1>        0.000
      9 H          -8.4780  -46.4683   30.4798 H          1 <1>        0.000
     10 N1         -6.2510  -45.1330   30.8600 N.pl3      1 <1>        0.560
     11 H1         -6.1450  -45.9777   30.2802 H          1 <1>        0.000
     12 H2         -5.4297  -44.5488   31.0721 H          1 <1>        0.000
     13 C1        -11.0620  -46.0530   31.2420 C.3        1 <1>        0.000
     14 C2        -11.0560  -46.4650   29.7730 C.3        1 <1>       -0.170
     15 H3        -11.0430  -46.9518   31.8759 H          1 <1>        0.000
     16 H5        -11.9710  -45.4720   31.4570 H          1 <1>        0.000
     17 H7        -11.9419  -47.0819   29.5620 H          1 <1>        0.000
     18 H8        -10.1469  -47.0461   29.5590 H          1 <1>        0.000
     19 C1         -9.8870  -44.5870   28.5420 C.ar       1 <1>        0.200
     20 C2        -11.0830  -45.2190   28.8950 C.ar       1 <1>        0.150
     21 C3        -12.3030  -44.7080   28.4430 C.ar       1 <1>        0.200
     22 C4        -12.3280  -43.5660   27.6370 C.ar       1 <1>        0.180
     23 C5        -11.1320  -42.9340   27.2840 C.ar       1 <1>        0.100
     24 C6         -9.9110  -43.4440   27.7370 C.ar       1 <1>        0.070
     25 H1         -8.9404  -44.9828   28.8918 H          1 <1>        0.000
     26 H3        -13.2307  -45.1978   28.7159 H          1 <1>        0.000
     27 H5        -11.1500  -42.0479   26.6599 H          1 <1>        0.000
     28 H6         -8.9838  -42.9539   27.4629 H          1 <1>        0.000
     29 O1        -13.9320  -41.7150   26.9400 O.3        1 <1>        0.970
     30 C1        -13.6460  -43.0140   27.1490 C.2        1 <1>        0.090
     31 N1        -14.6750  -43.6910   26.8640 N.2        1 <1>        0.090
     32 C2        -15.7940  -42.9140   26.4220 C.2        1 <1>        0.070
     33 C3        -15.2120  -41.7170   26.5130 C.2        1 <1>        0.090
     34 H2        -16.7954  -43.2111   26.1139 H          1 <1>        0.000
     35 H3        -15.7330  -40.7950   26.2590 H          1 <1>        0.000
     36 C1         -8.7590  -42.3800   34.9380 C.3        1 <1>        0.020
     37 C2         -8.9670  -42.0280   33.4680 C.3        1 <1>        0.030
     38 H3         -9.5176  -43.1126   35.2508 H          1 <1>        0.000
     39 H4         -7.7561  -42.8110   35.0740 H          1 <1>        0.000
     40 H6         -8.2082  -41.2952   33.1561 H          1 <1>        0.000
     41 H7         -9.9700  -41.5970   33.3330 H          1 <1>        0.000
     42 N1         -8.8860  -41.1650   35.7560 N.4        1 <1>        0.610
     43 H1         -9.7664  -40.7158   35.5579 H          1 <1>        0.000
     44 H2         -8.8460  -41.4109   36.7327 H          1 <1>        0.000
     45 H4         -8.1309  -40.5339   35.5380 H          1 <1>        0.000
@<TRIPOS>BOND
     1    3    2 ar 
     2    3    4 ar 
     3    2    6 ar 
     4    4    1 ar 
     5    6    7 1  
     6    6    5 ar 
     7    1    5 ar 
     8    1    8 1  
     9    3    9 1  
    10   10   11 1  
    11   10   12 1  
    12    2   10 1  
    13   14   13 1  
    14   13   15 1  
    15   13   16 1  
    16   14   17 1  
    17   14   18 1  
    18    4   13 1  
    19   19   20 ar 
    20   19   24 ar 
    21   20   21 ar 
    22   21   22 ar 
    23   22   23 ar 
    24   23   24 ar 
    25   19   25 1  
    26   21   26 1  
    27   23   27 1  
    28   24   28 1  
    29   14   20 1  
    30   29   30 1  
    31   29   33 1  
    32   30   31 2  
    33   31   32 1  
    34   32   33 2  
    35   32   34 1  
    36   33   35 1  
    37   22   30 1  
    38   37   36 1  
    39   36   38 1  
    40   36   39 1  
    41   37   40 1  
    42   37   41 1  
    43    5   37 1  
    44   42   43 1  
    45   42   44 1  
    46   42   45 1  
    47   36   42 1  
# Name:          No_6_53
# Creation time: Thu Mar 21 10:00:55 2024


@<TRIPOS>MOLECULE
000001_000003
   45    47     1     1     1
SMALL
USER_CHARGES


@<TRIPOS>ATOM
      1 C17        -9.9380  -44.0780   32.3390 C.ar       1 <1>        0.210
      2 C20        -7.4650  -44.7920   31.3410 C.ar       1 <1>        0.110
      3 C21        -8.5840  -45.5640   31.0680 C.ar       1 <1>        0.230
      4 C16        -9.8330  -45.1980   31.5350 C.ar       1 <1>        0.170
      5 C18        -8.8360  -43.2880   32.6200 C.ar       1 <1>        0.160
      6 C19        -7.6280  -43.6740   32.1130 C.ar       1 <1>        0.100
      7 H          -6.7601  -43.0640   32.3360 H          1 <1>        0.000
      8 H         -10.9020  -43.8130   32.7580 H          1 <1>        0.000
      9 H          -8.4780  -46.4683   30.4798 H          1 <1>        0.000
     10 N1         -6.2510  -45.1330   30.8600 N.pl3      1 <1>        0.560
     11 H1         -6.1450  -45.9777   30.2802 H          1 <1>        0.000
     12 H2         -5.4297  -44.5488   31.0721 H          1 <1>        0.000
     13 C1        -11.0620  -46.0530   31.2420 C.3        1 <1>        0.000
     14 C2        -11.0560  -46.4650   29.7730 C.3        1 <1>       -0.170
     15 H3        -11.0430  -46.9518   31.8759 H          1 <1>        0.000
     16 H5        -11.9710  -45.4720   31.4570 H          1 <1>        0.000
     17 H7        -11.9419  -47.0819   29.5620 H          1 <1>        0.000
     18 H8        -10.1469  -47.0461   29.5590 H          1 <1>        0.000
     19 C1         -9.8870  -44.5870   28.5420 C.ar       1 <1>        0.200
     20 C2        -11.0830  -45.2190   28.8950 C.ar       1 <1>        0.150
     21 C3        -12.3030  -44.7080   28.4430 C.ar       1 <1>        0.200
     22 C4        -12.3280  -43.5660   27.6370 C.ar       1 <1>        0.180
     23 C5        -11.1320  -42.9340   27.2840 C.ar       1 <1>        0.100
     24 C6         -9.9110  -43.4440   27.7370 C.ar       1 <1>        0.070
     25 H1         -8.9404  -44.9828   28.8918 H          1 <1>        0.000
     26 H3        -13.2307  -45.1978   28.7159 H          1 <1>        0.000
     27 H5        -11.1500  -42.0479   26.6599 H          1 <1>        0.000
     28 H6         -8.9838  -42.9539   27.4629 H          1 <1>        0.000
     29 O1        -13.9320  -41.7150   26.9400 O.3        1 <1>        0.970
     30 C1        -13.6460  -43.0140   27.1490 C.2        1 <1>        0.090
     31 N1        -14.6750  -43.6910   26.8640 N.2        1 <1>        0.090
     32 C2        -15.7940  -42.9140   26.4220 C.2        1 <1>        0.070
     33 C3        -15.2120  -41.7170   26.5130 C.2        1 <1>        0.090
     34 H2        -16.7954  -43.2111   26.1139 H          1 <1>        0.000
     35 H3        -15.7330  -40.7950   26.2590 H          1 <1>        0.000
     36 C1         -8.7590  -42.3800   34.9380 C.3        1 <1>        0.020
     37 C2         -8.9670  -42.0280   33.4680 C.3        1 <1>        0.030
     38 H3         -9.5176  -43.1126   35.2508 H          1 <1>        0.000
     39 H4         -7.7561  -42.8110   35.0740 H          1 <1>        0.000
     40 H6         -8.2082  -41.2952   33.1561 H          1 <1>        0.000
     41 H7         -9.9700  -41.5970   33.3330 H          1 <1>        0.000
     42 N1         -8.8860  -41.1650   35.7560 N.4        1 <1>        0.610
     43 H1         -9.8467  -41.0469   36.0372 H          1 <1>        0.000
     44 H2         -8.3041  -41.2490   36.5748 H          1 <1>        0.000
     45 H4         -8.5928  -40.3655   35.2167 H          1 <1>        0.000
@<TRIPOS>BOND
     1    3    2 ar 
     2    3    4 ar 
     3    2    6 ar 
     4    4    1 ar 
     5    6    7 1  
     6    6    5 ar 
     7    1    5 ar 
     8    1    8 1  
     9    3    9 1  
    10   10   11 1  
    11   10   12 1  
    12    2   10 1  
    13   14   13 1  
    14   13   15 1  
    15   13   16 1  
    16   14   17 1  
    17   14   18 1  
    18    4   13 1  
    19   19   20 ar 
    20   19   24 ar 
    21   20   21 ar 
    22   21   22 ar 
    23   22   23 ar 
    24   23   24 ar 
    25   19   25 1  
    26   21   26 1  
    27   23   27 1  
    28   24   28 1  
    29   14   20 1  
    30   29   30 1  
    31   29   33 1  
    32   30   31 2  
    33   31   32 1  
    34   32   33 2  
    35   32   34 1  
    36   33   35 1  
    37   22   30 1  
    38   37   36 1  
    39   36   38 1  
    40   36   39 1  
    41   37   40 1  
    42   37   41 1  
    43    5   37 1  
    44   42   43 1  
    45   42   44 1  
    46   42   45 1  
    47   36   42 1  
# Name:          No_7_6
# Creation time: Thu Mar 21 10:00:55 2024


@<TRIPOS>MOLECULE
000001_000004
   45    47     1     1     1
SMALL
USER_CHARGES


@<TRIPOS>ATOM
      1 C17        -9.9380  -44.0780   32.3390 C.ar       1 <1>        0.210
      2 C20        -7.4650  -44.7920   31.3410 C.ar       1 <1>        0.110
      3 C21        -8.5840  -45.5640   31.0680 C.ar       1 <1>        0.230
      4 C16        -9.8330  -45.1980   31.5350 C.ar       1 <1>        0.170
      5 C18        -8.8360  -43.2880   32.6200 C.ar       1 <1>        0.160
      6 C19        -7.6280  -43.6740   32.1130 C.ar       1 <1>        0.100
      7 H          -6.7601  -43.0640   32.3360 H          1 <1>        0.000
      8 H         -10.9020  -43.8130   32.7580 H          1 <1>        0.000
      9 H          -8.4780  -46.4683   30.4798 H          1 <1>        0.000
     10 N1         -6.2510  -45.1330   30.8600 N.pl3      1 <1>        0.560
     11 H1         -6.1450  -45.9777   30.2802 H          1 <1>        0.000
     12 H2         -5.4297  -44.5488   31.0721 H          1 <1>        0.000
     13 C1        -11.0620  -46.0530   31.2420 C.3        1 <1>        0.000
     14 C2        -11.0560  -46.4650   29.7730 C.3        1 <1>       -0.170
     15 H3        -11.0430  -46.9518   31.8759 H          1 <1>        0.000
     16 H5        -11.9710  -45.4720   31.4570 H          1 <1>        0.000
     17 H7        -11.9419  -47.0819   29.5620 H          1 <1>        0.000
     18 H8        -10.1469  -47.0461   29.5590 H          1 <1>        0.000
     19 C1         -9.8870  -44.5870   28.5420 C.ar       1 <1>        0.200
     20 C2        -11.0830  -45.2190   28.8950 C.ar       1 <1>        0.150
     21 C3        -12.3030  -44.7080   28.4430 C.ar       1 <1>        0.200
     22 C4        -12.3280  -43.5660   27.6370 C.ar       1 <1>        0.180
     23 C5        -11.1320  -42.9340   27.2840 C.ar       1 <1>        0.100
     24 C6         -9.9110  -43.4440   27.7370 C.ar       1 <1>        0.070
     25 H1         -8.9404  -44.9828   28.8918 H          1 <1>        0.000
     26 H3        -13.2307  -45.1978   28.7159 H          1 <1>        0.000
     27 H5        -11.1500  -42.0479   26.6599 H          1 <1>        0.000
     28 H6         -8.9838  -42.9539   27.4629 H          1 <1>        0.000
     29 O1        -13.9320  -41.7150   26.9400 O.3        1 <1>        0.970
     30 C1        -13.6460  -43.0140   27.1490 C.2        1 <1>        0.090
     31 N1        -14.6750  -43.6910   26.8640 N.2        1 <1>        0.090
     32 C2        -15.7940  -42.9140   26.4220 C.2        1 <1>        0.070
     33 C3        -15.2120  -41.7170   26.5130 C.2        1 <1>        0.090
     34 H2        -16.7954  -43.2111   26.1139 H          1 <1>        0.000
     35 H3        -15.7330  -40.7950   26.2590 H          1 <1>        0.000
     36 C1         -8.7590  -42.3800   34.9380 C.3        1 <1>        0.020
     37 C2         -8.9670  -42.0280   33.4680 C.3        1 <1>        0.030
     38 H3         -9.5176  -43.1126   35.2508 H          1 <1>        0.000
     39 H4         -7.7561  -42.8110   35.0740 H          1 <1>        0.000
     40 H6         -8.2082  -41.2952   33.1561 H          1 <1>        0.000
     41 H7         -9.9700  -41.5970   33.3330 H          1 <1>        0.000
     42 N1         -8.8860  -41.1650   35.7560 N.4        1 <1>        0.610
     43 H1         -9.2711  -40.4207   35.1958 H          1 <1>        0.000
     44 H2         -9.4952  -41.3470   36.5382 H          1 <1>        0.000
     45 H4         -7.9767  -40.8932   36.0957 H          1 <1>        0.000
@<TRIPOS>BOND
     1    3    2 ar 
     2    3    4 ar 
     3    2    6 ar 
     4    4    1 ar 
     5    6    7 1  
     6    6    5 ar 
     7    1    5 ar 
     8    1    8 1  
     9    3    9 1  
    10   10   11 1  
    11   10   12 1  
    12    2   10 1  
    13   14   13 1  
    14   13   15 1  
    15   13   16 1  
    16   14   17 1  
    17   14   18 1  
    18    4   13 1  
    19   19   20 ar 
    20   19   24 ar 
    21   20   21 ar 
    22   21   22 ar 
    23   22   23 ar 
    24   23   24 ar 
    25   19   25 1  
    26   21   26 1  
    27   23   27 1  
    28   24   28 1  
    29   14   20 1  
    30   29   30 1  
    31   29   33 1  
    32   30   31 2  
    33   31   32 1  
    34   32   33 2  
    35   32   34 1  
    36   33   35 1  
    37   22   30 1  
    38   37   36 1  
    39   36   38 1  
    40   36   39 1  
    41   37   40 1  
    42   37   41 1  
    43    5   37 1  
    44   42   43 1  
    45   42   44 1  
    46   42   45 1  
    47   36   42 1  
# Name:          No_7_7
# Creation time: Thu Mar 21 10:00:55 2024


@<TRIPOS>MOLECULE
000001_000005
   45    47     1     1     1
SMALL
USER_CHARGES


@<TRIPOS>ATOM
      1 C17        -9.9380  -44.0780   32.3390 C.ar       1 <1>        0.210
      2 C20        -7.4650  -44.7920   31.3410 C.ar       1 <1>        0.110
      3 C21        -8.5840  -45.5640   31.0680 C.ar       1 <1>        0.230
      4 C16        -9.8330  -45.1980   31.5350 C.ar       1 <1>        0.170
      5 C18        -8.8360  -43.2880   32.6200 C.ar       1 <1>        0.160
      6 C19        -7.6280  -43.6740   32.1130 C.ar       1 <1>        0.100
      7 H          -6.7601  -43.0640   32.3360 H          1 <1>        0.000
      8 H         -10.9020  -43.8130   32.7580 H          1 <1>        0.000
      9 H          -8.4780  -46.4683   30.4798 H          1 <1>        0.000
     10 N1         -6.2510  -45.1330   30.8600 N.pl3      1 <1>        0.560
     11 H1         -6.1450  -45.9777   30.2802 H          1 <1>        0.000
     12 H2         -5.4297  -44.5488   31.0721 H          1 <1>        0.000
     13 C1        -11.0620  -46.0530   31.2420 C.3        1 <1>        0.000
     14 C2        -11.0560  -46.4650   29.7730 C.3        1 <1>       -0.170
     15 H3        -11.0430  -46.9518   31.8759 H          1 <1>        0.000
     16 H5        -11.9710  -45.4720   31.4570 H          1 <1>        0.000
     17 H7        -11.9419  -47.0819   29.5620 H          1 <1>        0.000
     18 H8        -10.1469  -47.0461   29.5590 H          1 <1>        0.000
     19 C1         -9.8870  -44.5870   28.5420 C.ar       1 <1>        0.200
     20 C2        -11.0830  -45.2190   28.8950 C.ar       1 <1>        0.150
     21 C3        -12.3030  -44.7080   28.4430 C.ar       1 <1>        0.200
     22 C4        -12.3280  -43.5660   27.6370 C.ar       1 <1>        0.180
     23 C5        -11.1320  -42.9340   27.2840 C.ar       1 <1>        0.100
     24 C6         -9.9110  -43.4440   27.7370 C.ar       1 <1>        0.070
     25 H1         -8.9404  -44.9828   28.8918 H          1 <1>        0.000
     26 H3        -13.2307  -45.1978   28.7159 H          1 <1>        0.000
     27 H5        -11.1500  -42.0479   26.6599 H          1 <1>        0.000
     28 H6         -8.9838  -42.9539   27.4629 H          1 <1>        0.000
     29 O1        -13.9320  -41.7150   26.9400 O.3        1 <1>        0.970
     30 C1        -13.6460  -43.0140   27.1490 C.2        1 <1>        0.090
     31 N1        -14.6750  -43.6910   26.8640 N.2        1 <1>        0.090
     32 C2        -15.7940  -42.9140   26.4220 C.2        1 <1>        0.070
     33 C3        -15.2120  -41.7170   26.5130 C.2        1 <1>        0.090
     34 H2        -16.7954  -43.2111   26.1139 H          1 <1>        0.000
     35 H3        -15.7330  -40.7950   26.2590 H          1 <1>        0.000
     36 C1         -8.7590  -42.3800   34.9380 C.3        1 <1>        0.020
     37 C2         -8.9670  -42.0280   33.4680 C.3        1 <1>        0.030
     38 H3         -9.5176  -43.1126   35.2508 H          1 <1>        0.000
     39 H4         -7.7561  -42.8110   35.0740 H          1 <1>        0.000
     40 H6         -8.2082  -41.2952   33.1561 H          1 <1>        0.000
     41 H7         -9.9700  -41.5970   33.3330 H          1 <1>        0.000
     42 N1         -8.8860  -41.1650   35.7560 N.4        1 <1>        0.610
     43 H1         -9.7664  -40.7158   35.5579 H          1 <1>        0.000
     44 H2         -8.8460  -41.4109   36.7327 H          1 <1>        0.000
     45 H4         -8.1309  -40.5339   35.5380 H          1 <1>        0.000
@<TRIPOS>BOND
     1    3    2 ar 
     2    3    4 ar 
     3    2    6 ar 
     4    4    1 ar 
     5    6    7 1  
     6    6    5 ar 
     7    1    5 ar 
     8    1    8 1  
     9    3    9 1  
    10   10   11 1  
    11   10   12 1  
    12    2   10 1  
    13   14   13 1  
    14   13   15 1  
    15   13   16 1  
    16   14   17 1  
    17   14   18 1  
    18    4   13 1  
    19   19   20 ar 
    20   19   24 ar 
    21   20   21 ar 
    22   21   22 ar 
    23   22   23 ar 
    24   23   24 ar 
    25   19   25 1  
    26   21   26 1  
    27   23   27 1  
    28   24   28 1  
    29   14   20 1  
    30   29   30 1  
    31   29   33 1  
    32   30   31 2  
    33   31   32 1  
    34   32   33 2  
    35   32   34 1  
    36   33   35 1  
    37   22   30 1  
    38   37   36 1  
    39   36   38 1  
    40   36   39 1  
    41   37   40 1  
    42   37   41 1  
    43    5   37 1  
    44   42   43 1  
    45   42   44 1  
    46   42   45 1  
    47   36   42 1  
# Name:          No_7_8
# Creation time: Thu Mar 21 10:00:55 2024


@<TRIPOS>MOLECULE
000001_000006
   45    47     1     1     1
SMALL
USER_CHARGES


@<TRIPOS>ATOM
      1 C17        -9.9380  -44.0780   32.3390 C.ar       1 <1>        0.210
      2 C20        -7.4650  -44.7920   31.3410 C.ar       1 <1>        0.110
      3 C21        -8.5840  -45.5640   31.0680 C.ar       1 <1>        0.230
      4 C16        -9.8330  -45.1980   31.5350 C.ar       1 <1>        0.170
      5 C18        -8.8360  -43.2880   32.6200 C.ar       1 <1>        0.160
      6 C19        -7.6280  -43.6740   32.1130 C.ar       1 <1>        0.100
      7 H          -6.7601  -43.0640   32.3360 H          1 <1>        0.000
      8 H         -10.9020  -43.8130   32.7580 H          1 <1>        0.000
      9 H          -8.4780  -46.4683   30.4798 H          1 <1>        0.000
     10 N1         -6.2510  -45.1330   30.8600 N.pl3      1 <1>        0.560
     11 H1         -6.1450  -45.9777   30.2802 H          1 <1>        0.000
     12 H2         -5.4297  -44.5488   31.0721 H          1 <1>        0.000
     13 C1        -11.0620  -46.0530   31.2420 C.3        1 <1>        0.000
     14 C2        -11.0560  -46.4650   29.7730 C.3        1 <1>       -0.170
     15 H3        -11.0430  -46.9518   31.8759 H          1 <1>        0.000
     16 H5        -11.9710  -45.4720   31.4570 H          1 <1>        0.000
     17 H7        -11.9419  -47.0819   29.5620 H          1 <1>        0.000
     18 H8        -10.1469  -47.0461   29.5590 H          1 <1>        0.000
     19 C1         -9.8870  -44.5870   28.5420 C.ar       1 <1>        0.200
     20 C2        -11.0830  -45.2190   28.8950 C.ar       1 <1>        0.150
     21 C3        -12.3030  -44.7080   28.4430 C.ar       1 <1>        0.200
     22 C4        -12.3280  -43.5660   27.6370 C.ar       1 <1>        0.180
     23 C5        -11.1320  -42.9340   27.2840 C.ar       1 <1>        0.100
     24 C6         -9.9110  -43.4440   27.7370 C.ar       1 <1>        0.070
     25 H1         -8.9404  -44.9828   28.8918 H          1 <1>        0.000
     26 H3        -13.2307  -45.1978   28.7159 H          1 <1>        0.000
     27 H5        -11.1500  -42.0479   26.6599 H          1 <1>        0.000
     28 H6         -8.9838  -42.9539   27.4629 H          1 <1>        0.000
     29 O1        -13.9320  -41.7150   26.9400 O.3        1 <1>        0.970
     30 C1        -13.6460  -43.0140   27.1490 C.2        1 <1>        0.090
     31 N1        -14.6750  -43.6910   26.8640 N.2        1 <1>        0.090
     32 C2        -15.7940  -42.9140   26.4220 C.2        1 <1>        0.070
     33 C3        -15.2120  -41.7170   26.5130 C.2        1 <1>        0.090
     34 H2        -16.7954  -43.2111   26.1139 H          1 <1>        0.000
     35 H3        -15.7330  -40.7950   26.2590 H          1 <1>        0.000
     36 C1         -8.7590  -42.3800   34.9380 C.3        1 <1>        0.020
     37 C2         -8.9670  -42.0280   33.4680 C.3        1 <1>        0.030
     38 H3         -9.5176  -43.1126   35.2508 H          1 <1>        0.000
     39 H4         -7.7561  -42.8110   35.0740 H          1 <1>        0.000
     40 H6         -8.2082  -41.2952   33.1561 H          1 <1>        0.000
     41 H7         -9.9700  -41.5970   33.3330 H          1 <1>        0.000
     42 N1         -8.8860  -41.1650   35.7560 N.4        1 <1>        0.610
     43 H1         -9.8467  -41.0469   36.0372 H          1 <1>        0.000
     44 H2         -8.3041  -41.2490   36.5748 H          1 <1>        0.000
     45 H4         -8.5928  -40.3655   35.2167 H          1 <1>        0.000
@<TRIPOS>BOND
     1    3    2 ar 
     2    3    4 ar 
     3    2    6 ar 
     4    4    1 ar 
     5    6    7 1  
     6    6    5 ar 
     7    1    5 ar 
     8    1    8 1  
     9    3    9 1  
    10   10   11 1  
    11   10   12 1  
    12    2   10 1  
    13   14   13 1  
    14   13   15 1  
    15   13   16 1  
    16   14   17 1  
    17   14   18 1  
    18    4   13 1  
    19   19   20 ar 
    20   19   24 ar 
    21   20   21 ar 
    22   21   22 ar 
    23   22   23 ar 
    24   23   24 ar 
    25   19   25 1  
    26   21   26 1  
    27   23   27 1  
    28   24   28 1  
    29   14   20 1  
    30   29   30 1  
    31   29   33 1  
    32   30   31 2  
    33   31   32 1  
    34   32   33 2  
    35   32   34 1  
    36   33   35 1  
    37   22   30 1  
    38   37   36 1  
    39   36   38 1  
    40   36   39 1  
    41   37   40 1  
    42   37   41 1  
    43    5   37 1  
    44   42   43 1  
    45   42   44 1  
    46   42   45 1  
    47   36   42 1  
# Name:          No_5_27
# Creation time: Thu Mar 21 10:00:55 2024


@<TRIPOS>MOLECULE
000002_000001
   33    34     1     1     1
SMALL
USER_CHARGES


@<TRIPOS>ATOM
      1 C17        -9.9380  -44.0780   32.3390 C.ar       1 <1>        0.210
      2 C20        -7.4650  -44.7920   31.3410 C.ar       1 <1>        0.110
      3 C21        -8.5840  -45.5640   31.0680 C.ar       1 <1>        0.230
      4 C16        -9.8330  -45.1980   31.5350 C.ar       1 <1>        0.170
      5 C18        -8.8360  -43.2880   32.6200 C.ar       1 <1>        0.160
      6 C19        -7.6280  -43.6740   32.1130 C.ar       1 <1>        0.100
      7 H          -6.7601  -43.0640   32.3360 H          1 <1>        0.000
      8 H         -10.9020  -43.8130   32.7580 H          1 <1>        0.000
      9 H          -8.4780  -46.4683   30.4798 H          1 <1>        0.000
     10 C1        -11.0620  -46.0530   31.2420 C.3        1 <1>        0.000
     11 C2        -11.7040  -45.5900   29.9380 C.ar       1 <1>        0.160
     12 C3        -13.0230  -45.1270   29.9340 C.ar       1 <1>        0.210
     13 C4        -13.6110  -44.7030   28.7390 C.ar       1 <1>        0.210
     14 C5        -12.8800  -44.7430   27.5480 C.ar       1 <1>        0.220
     15 C6        -11.5610  -45.2070   27.5520 C.ar       1 <1>        0.190
     16 C7        -10.9730  -45.6300   28.7470 C.ar       1 <1>        0.230
     17 H1        -11.7852  -45.9480   32.0642 H          1 <1>        0.000
     18 H3        -10.7619  -47.1073   31.1500 H          1 <1>        0.000
     19 H4        -13.5890  -45.0960   30.8580 H          1 <1>        0.000
     20 H5        -14.6338  -44.3441   28.7360 H          1 <1>        0.000
     21 H6        -13.3369  -44.4151   26.6213 H          1 <1>        0.000
     22 H7        -10.9950  -45.2380   26.6280 H          1 <1>        0.000
     23 H8         -9.9505  -45.9898   28.7500 H          1 <1>        0.000
     24 O1         -6.2150  -45.1430   30.8450 O.3        1 <1>        0.560
     25 H2         -5.7960  -44.3140   30.6460 H          1 <1>        0.000
     26 C1         -8.9670  -42.0280   33.4680 C.3        1 <1>        0.030
     27 H2         -8.0223  -41.4652   33.4380 H          1 <1>        0.000
     28 H3         -9.7790  -41.4010   33.0710 H          1 <1>        0.000
     29 C1         -9.2850  -42.4190   34.9230 C.3        1 <1>        0.030
     30 H2         -9.1310  -43.5003   35.0540 H          1 <1>        0.000
     31 O3         -8.4190  -41.7040   35.8090 O.3        1 <1>        1.020
     32 H4        -10.3312  -42.1670   35.1510 H          1 <1>        0.000
     33 H6         -8.5459  -40.7686   35.7021 H          1 <1>        0.000
@<TRIPOS>BOND
     1    3    2 ar 
     2    3    4 ar 
     3    2    6 ar 
     4    4    1 ar 
     5    6    7 1  
     6    6    5 ar 
     7    1    5 ar 
     8    1    8 1  
     9    3    9 1  
    10   10   11 1  
    11   11   12 ar 
    12   11   16 ar 
    13   16   15 ar 
    14   15   14 ar 
    15   14   13 ar 
    16   13   12 ar 
    17   10   17 1  
    18   10   18 1  
    19   12   19 1  
    20   13   20 1  
    21   14   21 1  
    22   15   22 1  
    23   16   23 1  
    24    4   10 1  
    25   24   25 1  
    26    2   24 1  
    27   26   27 1  
    28   26   28 1  
    29    5   26 1  
    30   29   30 1  
    31   29   31 1  
    32   29   32 1  
    33   31   33 1  
    34   26   29 1  
# Name:          No_6_1
# Creation time: Thu Mar 21 10:00:55 2024


@<TRIPOS>MOLECULE
000002_000002
   33    34     1     1     1
SMALL
USER_CHARGES


@<TRIPOS>ATOM
      1 C17        -9.9380  -44.0780   32.3390 C.ar       1 <1>        0.210
      2 C20        -7.4650  -44.7920   31.3410 C.ar       1 <1>        0.110
      3 C21        -8.5840  -45.5640   31.0680 C.ar       1 <1>        0.230
      4 C16        -9.8330  -45.1980   31.5350 C.ar       1 <1>        0.170
      5 C18        -8.8360  -43.2880   32.6200 C.ar       1 <1>        0.160
      6 C19        -7.6280  -43.6740   32.1130 C.ar       1 <1>        0.100
      7 H          -6.7601  -43.0640   32.3360 H          1 <1>        0.000
      8 H         -10.9020  -43.8130   32.7580 H          1 <1>        0.000
      9 H          -8.4780  -46.4683   30.4798 H          1 <1>        0.000
     10 C1        -11.0620  -46.0530   31.2420 C.3        1 <1>        0.000
     11 C2        -11.7040  -45.5900   29.9380 C.ar       1 <1>        0.160
     12 C3        -13.0230  -45.1270   29.9340 C.ar       1 <1>        0.210
     13 C4        -13.6110  -44.7030   28.7390 C.ar       1 <1>        0.210
     14 C5        -12.8800  -44.7430   27.5480 C.ar       1 <1>        0.220
     15 C6        -11.5610  -45.2070   27.5520 C.ar       1 <1>        0.190
     16 C7        -10.9730  -45.6300   28.7470 C.ar       1 <1>        0.230
     17 H1        -11.7852  -45.9480   32.0642 H          1 <1>        0.000
     18 H3        -10.7619  -47.1073   31.1500 H          1 <1>        0.000
     19 H4        -13.5890  -45.0960   30.8580 H          1 <1>        0.000
     20 H5        -14.6338  -44.3441   28.7360 H          1 <1>        0.000
     21 H6        -13.3369  -44.4151   26.6213 H          1 <1>        0.000
     22 H7        -10.9950  -45.2380   26.6280 H          1 <1>        0.000
     23 H8         -9.9505  -45.9898   28.7500 H          1 <1>        0.000
     24 O1         -6.2150  -45.1430   30.8450 O.3        1 <1>        0.560
     25 H2         -5.7960  -44.3140   30.6460 H          1 <1>        0.000
     26 C1         -8.9670  -42.0280   33.4680 C.3        1 <1>        0.030
     27 H2         -8.0223  -41.4652   33.4380 H          1 <1>        0.000
     28 H3         -9.7790  -41.4010   33.0710 H          1 <1>        0.000
     29 C1         -9.2850  -42.4190   34.9230 C.3        1 <1>        0.030
     30 H2         -9.1310  -43.5003   35.0540 H          1 <1>        0.000
     31 O3         -8.4190  -41.7040   35.8090 O.3        1 <1>        1.020
     32 H4        -10.3312  -42.1670   35.1510 H          1 <1>        0.000
     33 H6         -8.5459  -40.7686   35.7021 H          1 <1>        0.000
@<TRIPOS>BOND
     1    3    2 ar 
     2    3    4 ar 
     3    2    6 ar 
     4    4    1 ar 
     5    6    7 1  
     6    6    5 ar 
     7    1    5 ar 
     8    1    8 1  
     9    3    9 1  
    10   10   11 1  
    11   11   12 ar 
    12   11   16 ar 
    13   16   15 ar 
    14   15   14 ar 
    15   14   13 ar 
    16   13   12 ar 
    17   10   17 1  
    18   10   18 1  
    19   12   19 1  
    20   13   20 1  
    21   14   21 1  
    22   15   22 1  
    23   16   23 1  
    24    4   10 1  
    25   24   25 1  
    26    2   24 1  
    27   26   27 1  
    28   26   28 1  
    29    5   26 1  
    30   29   30 1  
    31   29   31 1  
    32   29   32 1  
    33   31   33 1  
    34   26   29 1  
# Name:          No_7_2
# Creation time: Thu Mar 21 10:00:55 2024


@<TRIPOS>MOLECULE
000002_000003
   33    34     1     1     1
SMALL
USER_CHARGES


@<TRIPOS>ATOM
      1 C17        -9.9380  -44.0780   32.3390 C.ar       1 <1>        0.210
      2 C20        -7.4650  -44.7920   31.3410 C.ar       1 <1>        0.110
      3 C21        -8.5840  -45.5640   31.0680 C.ar       1 <1>        0.230
      4 C16        -9.8330  -45.1980   31.5350 C.ar       1 <1>        0.170
      5 C18        -8.8360  -43.2880   32.6200 C.ar       1 <1>        0.160
      6 C19        -7.6280  -43.6740   32.1130 C.ar       1 <1>        0.100
      7 H          -6.7601  -43.0640   32.3360 H          1 <1>        0.000
      8 H         -10.9020  -43.8130   32.7580 H          1 <1>        0.000
      9 H          -8.4780  -46.4683   30.4798 H          1 <1>        0.000
     10 C1        -11.0620  -46.0530   31.2420 C.3        1 <1>        0.000
     11 C2        -11.7040  -45.5900   29.9380 C.ar       1 <1>        0.160
     12 C3        -13.0230  -45.1270   29.9340 C.ar       1 <1>        0.210
     13 C4        -13.6110  -44.7030   28.7390 C.ar       1 <1>        0.210
     14 C5        -12.8800  -44.7430   27.5480 C.ar       1 <1>        0.220
     15 C6        -11.5610  -45.2070   27.5520 C.ar       1 <1>        0.190
     16 C7        -10.9730  -45.6300   28.7470 C.ar       1 <1>        0.230
     17 H1        -11.7852  -45.9480   32.0642 H          1 <1>        0.000
     18 H3        -10.7619  -47.1073   31.1500 H          1 <1>        0.000
     19 H4        -13.5890  -45.0960   30.8580 H          1 <1>        0.000
     20 H5        -14.6338  -44.3441   28.7360 H          1 <1>        0.000
     21 H6        -13.3369  -44.4151   26.6213 H          1 <1>        0.000
     22 H7        -10.9950  -45.2380   26.6280 H          1 <1>        0.000
     23 H8         -9.9505  -45.9898   28.7500 H          1 <1>        0.000
     24 O1         -6.2150  -45.1430   30.8450 O.3        1 <1>        0.560
     25 H2         -5.7960  -44.3140   30.6460 H          1 <1>        0.000
     26 C1         -8.9670  -42.0280   33.4680 C.3        1 <1>        0.030
     27 H2         -8.0223  -41.4652   33.4380 H          1 <1>        0.000
     28 H3         -9.7790  -41.4010   33.0710 H          1 <1>        0.000
     29 C1         -9.2850  -42.4190   34.9230 C.3        1 <1>        0.030
     30 H2         -9.1310  -43.5003   35.0540 H          1 <1>        0.000
     31 O3         -8.4190  -41.7040   35.8090 O.3        1 <1>        1.020
     32 H4        -10.3312  -42.1670   35.1510 H          1 <1>        0.000
     33 H6         -8.5459  -40.7686   35.7021 H          1 <1>        0.000
@<TRIPOS>BOND
     1    3    2 ar 
     2    3    4 ar 
     3    2    6 ar 
     4    4    1 ar 
     5    6    7 1  
     6    6    5 ar 
     7    1    5 ar 
     8    1    8 1  
     9    3    9 1  
    10   10   11 1  
    11   11   12 ar 
    12   11   16 ar 
    13   16   15 ar 
    14   15   14 ar 
    15   14   13 ar 
    16   13   12 ar 
    17   10   17 1  
    18   10   18 1  
    19   12   19 1  
    20   13   20 1  
    21   14   21 1  
    22   15   22 1  
    23   16   23 1  
    24    4   10 1  
    25   24   25 1  
    26    2   24 1  
    27   26   27 1  
    28   26   28 1  
    29    5   26 1  
    30   29   30 1  
    31   29   31 1  
    32   29   32 1  
    33   31   33 1  
    34   26   29 1  
# Name:          No_6_2
# Creation time: Thu Mar 21 10:00:55 2024


@<TRIPOS>MOLECULE
000002_000004
   33    34     1     1     1
SMALL
USER_CHARGES


@<TRIPOS>ATOM
      1 C17        -9.9380  -44.0780   32.3390 C.ar       1 <1>        0.210
      2 C20        -7.4650  -44.7920   31.3410 C.ar       1 <1>        0.110
      3 C21        -8.5840  -45.5640   31.0680 C.ar       1 <1>        0.230
      4 C16        -9.8330  -45.1980   31.5350 C.ar       1 <1>        0.170
      5 C18        -8.8360  -43.2880   32.6200 C.ar       1 <1>        0.160
      6 C19        -7.6280  -43.6740   32.1130 C.ar       1 <1>        0.100
      7 H          -6.7601  -43.0640   32.3360 H          1 <1>        0.000
      8 H         -10.9020  -43.8130   32.7580 H          1 <1>        0.000
      9 H          -8.4780  -46.4683   30.4798 H          1 <1>        0.000
     10 C1        -11.0620  -46.0530   31.2420 C.3        1 <1>        0.000
     11 C2        -11.7040  -45.5900   29.9380 C.ar       1 <1>        0.160
     12 C3        -13.0230  -45.1270   29.9340 C.ar       1 <1>        0.210
     13 C4        -13.6110  -44.7030   28.7390 C.ar       1 <1>        0.210
     14 C5        -12.8800  -44.7430   27.5480 C.ar       1 <1>        0.220
     15 C6        -11.5610  -45.2070   27.5520 C.ar       1 <1>        0.190
     16 C7        -10.9730  -45.6300   28.7470 C.ar       1 <1>        0.230
     17 H1        -11.7852  -45.9480   32.0642 H          1 <1>        0.000
     18 H3        -10.7619  -47.1073   31.1500 H          1 <1>        0.000
     19 H4        -13.5890  -45.0960   30.8580 H          1 <1>        0.000
     20 H5        -14.6338  -44.3441   28.7360 H          1 <1>        0.000
     21 H6        -13.3369  -44.4151   26.6213 H          1 <1>        0.000
     22 H7        -10.9950  -45.2380   26.6280 H          1 <1>        0.000
     23 H8         -9.9505  -45.9898   28.7500 H          1 <1>        0.000
     24 O1         -6.2150  -45.1430   30.8450 O.3        1 <1>        0.560
     25 H2         -5.7960  -44.3140   30.6460 H          1 <1>        0.000
     26 C1         -8.9670  -42.0280   33.4680 C.3        1 <1>        0.030
     27 H2         -8.0223  -41.4652   33.4380 H          1 <1>        0.000
     28 H3         -9.7790  -41.4010   33.0710 H          1 <1>        0.000
     29 C1         -9.2850  -42.4190   34.9230 C.3        1 <1>        0.030
     30 H2         -8.8830  -43.4220   35.1290 H          1 <1>        0.000
     31 O3         -8.6850  -41.4730   35.8130 O.3        1 <1>        0.850
     32 H4        -10.3747  -42.4230   35.0730 H          1 <1>        0.000
     33 H6         -9.0272  -40.6035   35.6419 H          1 <1>        0.000
@<TRIPOS>BOND
     1    3    2 ar 
     2    3    4 ar 
     3    2    6 ar 
     4    4    1 ar 
     5    6    7 1  
     6    6    5 ar 
     7    1    5 ar 
     8    1    8 1  
     9    3    9 1  
    10   10   11 1  
    11   11   12 ar 
    12   11   16 ar 
    13   16   15 ar 
    14   15   14 ar 
    15   14   13 ar 
    16   13   12 ar 
    17   10   17 1  
    18   10   18 1  
    19   12   19 1  
    20   13   20 1  
    21   14   21 1  
    22   15   22 1  
    23   16   23 1  
    24    4   10 1  
    25   24   25 1  
    26    2   24 1  
    27   26   27 1  
    28   26   28 1  
    29    5   26 1  
    30   29   30 1  
    31   29   31 1  
    32   29   32 1  
    33   31   33 1  
    34   26   29 1  
# Name:          No_5_28
# Creation time: Thu Mar 21 10:00:55 2024


@<TRIPOS>MOLECULE
000002_000005
   33    34     1     1     1
SMALL
USER_CHARGES


@<TRIPOS>ATOM
      1 C17        -9.9380  -44.0780   32.3390 C.ar       1 <1>        0.210
      2 C20        -7.4650  -44.7920   31.3410 C.ar       1 <1>        0.110
      3 C21        -8.5840  -45.5640   31.0680 C.ar       1 <1>        0.230
      4 C16        -9.8330  -45.1980   31.5350 C.ar       1 <1>        0.170
      5 C18        -8.8360  -43.2880   32.6200 C.ar       1 <1>        0.160
      6 C19        -7.6280  -43.6740   32.1130 C.ar       1 <1>        0.100
      7 H          -6.7601  -43.0640   32.3360 H          1 <1>        0.000
      8 H         -10.9020  -43.8130   32.7580 H          1 <1>        0.000
      9 H          -8.4780  -46.4683   30.4798 H          1 <1>        0.000
     10 C1        -11.0620  -46.0530   31.2420 C.3        1 <1>        0.000
     11 C2        -11.7040  -45.5900   29.9380 C.ar       1 <1>        0.160
     12 C3        -13.0230  -45.1270   29.9340 C.ar       1 <1>        0.210
     13 C4        -13.6110  -44.7030   28.7390 C.ar       1 <1>        0.210
     14 C5        -12.8800  -44.7430   27.5480 C.ar       1 <1>        0.220
     15 C6        -11.5610  -45.2070   27.5520 C.ar       1 <1>        0.190
     16 C7        -10.9730  -45.6300   28.7470 C.ar       1 <1>        0.230
     17 H1        -11.7852  -45.9480   32.0642 H          1 <1>        0.000
     18 H3        -10.7619  -47.1073   31.1500 H          1 <1>        0.000
     19 H4        -13.5890  -45.0960   30.8580 H          1 <1>        0.000
     20 H5        -14.6338  -44.3441   28.7360 H          1 <1>        0.000
     21 H6        -13.3369  -44.4151   26.6213 H          1 <1>        0.000
     22 H7        -10.9950  -45.2380   26.6280 H          1 <1>        0.000
     23 H8         -9.9505  -45.9898   28.7500 H          1 <1>        0.000
     24 O1         -6.2150  -45.1430   30.8450 O.3        1 <1>        0.560
     25 H2         -5.7960  -44.3140   30.6460 H          1 <1>        0.000
     26 C1         -8.9670  -42.0280   33.4680 C.3        1 <1>        0.030
     27 H2         -8.0223  -41.4652   33.4380 H          1 <1>        0.000
     28 H3         -9.7790  -41.4010   33.0710 H          1 <1>        0.000
     29 C1         -9.2850  -42.4190   34.9230 C.3        1 <1>        0.030
     30 H2         -8.8830  -43.4220   35.1290 H          1 <1>        0.000
     31 O3         -8.6850  -41.4730   35.8130 O.3        1 <1>        0.850
     32 H4        -10.3747  -42.4230   35.0730 H          1 <1>        0.000
     33 H6         -9.0272  -40.6035   35.6419 H          1 <1>        0.000
@<TRIPOS>BOND
     1    3    2 ar 
     2    3    4 ar 
     3    2    6 ar 
     4    4    1 ar 
     5    6    7 1  
     6    6    5 ar 
     7    1    5 ar 
     8    1    8 1  
     9    3    9 1  
    10   10   11 1  
    11   11   12 ar 
    12   11   16 ar 
    13   16   15 ar 
    14   15   14 ar 
    15   14   13 ar 
    16   13   12 ar 
    17   10   17 1  
    18   10   18 1  
    19   12   19 1  
    20   13   20 1  
    21   14   21 1  
    22   15   22 1  
    23   16   23 1  
    24    4   10 1  
    25   24   25 1  
    26    2   24 1  
    27   26   27 1  
    28   26   28 1  
    29    5   26 1  
    30   29   30 1  
    31   29   31 1  
    32   29   32 1  
    33   31   33 1  
    34   26   29 1  
# Name:          No_7_5
# Creation time: Thu Mar 21 10:00:55 2024


@<TRIPOS>MOLECULE
000002_000006
   33    34     1     1     1
SMALL
USER_CHARGES


@<TRIPOS>ATOM
      1 C17        -9.9380  -44.0780   32.3390 C.ar       1 <1>        0.210
      2 C20        -7.4650  -44.7920   31.3410 C.ar       1 <1>        0.110
      3 C21        -8.5840  -45.5640   31.0680 C.ar       1 <1>        0.230
      4 C16        -9.8330  -45.1980   31.5350 C.ar       1 <1>        0.170
      5 C18        -8.8360  -43.2880   32.6200 C.ar       1 <1>        0.160
      6 C19        -7.6280  -43.6740   32.1130 C.ar       1 <1>        0.100
      7 H          -6.7601  -43.0640   32.3360 H          1 <1>        0.000
      8 H         -10.9020  -43.8130   32.7580 H          1 <1>        0.000
      9 H          -8.4780  -46.4683   30.4798 H          1 <1>        0.000
     10 C1        -11.0620  -46.0530   31.2420 C.3        1 <1>        0.000
     11 C2        -11.7040  -45.5900   29.9380 C.ar       1 <1>        0.160
     12 C3        -13.0230  -45.1270   29.9340 C.ar       1 <1>        0.210
     13 C4        -13.6110  -44.7030   28.7390 C.ar       1 <1>        0.210
     14 C5        -12.8800  -44.7430   27.5480 C.ar       1 <1>        0.220
     15 C6        -11.5610  -45.2070   27.5520 C.ar       1 <1>        0.190
     16 C7        -10.9730  -45.6300   28.7470 C.ar       1 <1>        0.230
     17 H1        -11.7852  -45.9480   32.0642 H          1 <1>        0.000
     18 H3        -10.7619  -47.1073   31.1500 H          1 <1>        0.000
     19 H4        -13.5890  -45.0960   30.8580 H          1 <1>        0.000
     20 H5        -14.6338  -44.3441   28.7360 H          1 <1>        0.000
     21 H6        -13.3369  -44.4151   26.6213 H          1 <1>        0.000
     22 H7        -10.9950  -45.2380   26.6280 H          1 <1>        0.000
     23 H8         -9.9505  -45.9898   28.7500 H          1 <1>        0.000
     24 O1         -6.2150  -45.1430   30.8450 O.3        1 <1>        0.560
     25 H2         -5.7960  -44.3140   30.6460 H          1 <1>        0.000
     26 C1         -8.9670  -42.0280   33.4680 C.3        1 <1>        0.030
     27 H2         -8.0223  -41.4652   33.4380 H          1 <1>        0.000
     28 H3         -9.7790  -41.4010   33.0710 H          1 <1>        0.000
     29 C1         -9.2850  -42.4190   34.9230 C.3        1 <1>        0.030
     30 H2         -8.8830  -43.4220   35.1290 H          1 <1>        0.000
     31 O3         -8.6850  -41.4730   35.8130 O.3        1 <1>        0.850
     32 H4        -10.3747  -42.4230   35.0730 H          1 <1>        0.000
     33 H6         -9.0272  -40.6035   35.6419 H          1 <1>        0.000
@<TRIPOS>BOND
     1    3    2 ar 
     2    3    4 ar 
     3    2    6 ar 
     4    4    1 ar 
     5    6    7 1  
     6    6    5 ar 
     7    1    5 ar 
     8    1    8 1  
     9    3    9 1  
    10   10   11 1  
    11   11   12 ar 
    12   11   16 ar 
    13   16   15 ar 
    14   15   14 ar 
    15   14   13 ar 
    16   13   12 ar 
    17   10   17 1  
    18   10   18 1  
    19   12   19 1  
    20   13   20 1  
    21   14   21 1  
    22   15   22 1  
    23   16   23 1  
    24    4   10 1  
    25   24   25 1  
    26    2   24 1  
    27   26   27 1  
    28   26   28 1  
    29    5   26 1  
    30   29   30 1  
    31   29   31 1  
    32   29   32 1  
    33   31   33 1  
    34   26   29 1  
# Name:          No_5_167
# Creation time: Thu Mar 21 10:00:55 2024


@<TRIPOS>MOLECULE
000003_000001
   43    44     1     1     1
SMALL
USER_CHARGES


@<TRIPOS>ATOM
      1 C17        -9.9380  -44.0780   32.3390 C.ar       1 <1>        0.210
      2 C20        -7.4650  -44.7920   31.3410 C.ar       1 <1>        0.110
      3 C21        -8.5840  -45.5640   31.0680 C.ar       1 <1>        0.230
      4 C16        -9.8330  -45.1980   31.5350 C.ar       1 <1>        0.170
      5 C18        -8.8360  -43.2880   32.6200 C.ar       1 <1>        0.200
      6 C19        -7.6280  -43.6740   32.1130 C.ar       1 <1>        0.060
      7 H         -10.9020  -43.8130   32.7580 H          1 <1>        0.000
      8 H          -6.4902  -45.0660   30.9541 H          1 <1>        0.000
      9 H          -8.4780  -46.4683   30.4798 H          1 <1>        0.000
     10 C1         -6.4070  -42.8150   32.4270 C.3        1 <1>        0.060
     11 H2         -6.7182  -41.7674   32.5521 H          1 <1>        0.000
     12 O3         -5.7960  -43.2790   33.6340 O.3        1 <1>        0.560
     13 H4         -5.6862  -42.8870   31.5992 H          1 <1>        0.000
     14 H6         -5.5241  -44.1836   33.5330 H          1 <1>        0.000
     15 C1        -11.0620  -46.0530   31.2420 C.3        1 <1>        0.000
     16 H1        -10.7659  -46.9273   30.6438 H          1 <1>        0.000
     17 H4        -11.5078  -46.3898   32.1895 H          1 <1>        0.000
     18 N1        -13.0070  -44.0280   29.0040 N.pl3      1 <1>        0.250
     19 C1        -13.9540  -44.2090   29.8780 C.2        1 <1>        0.050
     20 C2        -13.4590  -44.9680   30.8580 C.2        1 <1>        0.100
     21 C3        -12.0660  -45.2400   30.4780 C.2        1 <1>        0.050
     22 C4        -11.8860  -44.6120   29.3140 C.2        1 <1>        0.030
     23 H1        -13.1330  -43.4739   28.1449 H          1 <1>        0.000
     24 H3        -13.9746  -45.3147   31.7523 H          1 <1>        0.000
     25 N         -10.7640  -42.1840   28.0530 N.am       1 <1>        0.090
     26 C         -10.0230  -43.2030   28.5390 C.2        1 <1>        0.040
     27 O          -8.9010  -43.0380   28.9930 O.2        1 <1>        0.070
     28 C4        -10.6150  -44.5900   28.5150 C.3        1 <1>        0.000
     29 H1        -11.6806  -42.3421   27.6858 H          1 <1>        0.000
     30 H2        -10.3961  -41.2542   28.0570 H          1 <1>        0.000
     31 H4         -9.9180  -45.3260   28.9420 H          1 <1>        0.000
     32 H5        -10.8389  -44.8789   27.4775 H          1 <1>        0.000
     33 C1         -8.9660  -42.0400   33.4600 C.2        1 <1>        0.110
     34 O1         -9.7450  -41.1690   33.1040 O.2        1 <1>       -0.150
     35 O2         -8.2240  -41.9270   34.5670 O.3        1 <1>        0.410
     36 H2         -8.3671  -41.1124   35.0344 H          1 <1>        0.000
     37 N1        -15.5190  -42.5390   30.7480 N.4        1 <1>        1.010
     38 C1        -15.3520  -43.6680   29.8060 C.3        1 <1>        0.030
     39 H2        -16.4543  -42.1649   30.7120 H          1 <1>        0.000
     40 H3        -15.3431  -42.8248   31.6985 H          1 <1>        0.000
     41 H6        -15.5471  -43.3398   28.7744 H          1 <1>        0.000
     42 H7        -16.0526  -44.4796   30.0519 H          1 <1>        0.000
     43 H1        -14.8833  -41.7863   30.5351 H          1 <1>        0.000
@<TRIPOS>BOND
     1    3    2 ar 
     2    3    4 ar 
     3    2    6 ar 
     4    4    1 ar 
     5    6    5 ar 
     6    1    5 ar 
     7    1    7 1  
     8    2    8 1  
     9    3    9 1  
    10   10   11 1  
    11   10   12 1  
    12   10   13 1  
    13   12   14 1  
    14    6   10 1  
    15   15   16 1  
    16   15   17 1  
    17    4   15 1  
    18   18   19 1  
    19   18   22 1  
    20   19   20 2  
    21   20   21 1  
    22   21   22 2  
    23   18   23 1  
    24   20   24 1  
    25   15   21 1  
    26   25   26 am 
    27   26   27 2  
    28   26   28 1  
    29   25   29 1  
    30   25   30 1  
    31   28   31 1  
    32   28   32 1  
    33   22   28 1  
    34   33   34 2  
    35   33   35 1  
    36   35   36 1  
    37    5   33 1  
    38   37   38 1  
    39   37   39 1  
    40   37   40 1  
    41   38   41 1  
    42   38   42 1  
    43   37   43 1  
    44   19   38 1  
# Name:          No_5_168
# Creation time: Thu Mar 21 10:00:55 2024


@<TRIPOS>MOLECULE
000003_000002
   43    44     1     1     1
SMALL
USER_CHARGES


@<TRIPOS>ATOM
      1 C17        -9.9380  -44.0780   32.3390 C.ar       1 <1>        0.210
      2 C20        -7.4650  -44.7920   31.3410 C.ar       1 <1>        0.110
      3 C21        -8.5840  -45.5640   31.0680 C.ar       1 <1>        0.230
      4 C16        -9.8330  -45.1980   31.5350 C.ar       1 <1>        0.170
      5 C18        -8.8360  -43.2880   32.6200 C.ar       1 <1>        0.200
      6 C19        -7.6280  -43.6740   32.1130 C.ar       1 <1>        0.060
      7 H         -10.9020  -43.8130   32.7580 H          1 <1>        0.000
      8 H          -6.4902  -45.0660   30.9541 H          1 <1>        0.000
      9 H          -8.4780  -46.4683   30.4798 H          1 <1>        0.000
     10 C1         -6.4070  -42.8150   32.4270 C.3        1 <1>        0.060
     11 H2         -6.7182  -41.7674   32.5521 H          1 <1>        0.000
     12 O3         -5.7960  -43.2790   33.6340 O.3        1 <1>        0.560
     13 H4         -5.6862  -42.8870   31.5992 H          1 <1>        0.000
     14 H6         -5.5241  -44.1836   33.5330 H          1 <1>        0.000
     15 C1        -11.0620  -46.0530   31.2420 C.3        1 <1>        0.000
     16 H1        -10.7659  -46.9273   30.6438 H          1 <1>        0.000
     17 H4        -11.5078  -46.3898   32.1895 H          1 <1>        0.000
     18 N1        -13.0070  -44.0280   29.0040 N.pl3      1 <1>        0.250
     19 C1        -13.9540  -44.2090   29.8780 C.2        1 <1>        0.050
     20 C2        -13.4590  -44.9680   30.8580 C.2        1 <1>        0.100
     21 C3        -12.0660  -45.2400   30.4780 C.2        1 <1>        0.050
     22 C4        -11.8860  -44.6120   29.3140 C.2        1 <1>        0.030
     23 H1        -13.1330  -43.4739   28.1449 H          1 <1>        0.000
     24 H3        -13.9746  -45.3147   31.7523 H          1 <1>        0.000
     25 N         -10.7640  -42.1840   28.0530 N.am       1 <1>        0.090
     26 C         -10.0230  -43.2030   28.5390 C.2        1 <1>        0.040
     27 O          -8.9010  -43.0380   28.9930 O.2        1 <1>        0.070
     28 C4        -10.6150  -44.5900   28.5150 C.3        1 <1>        0.000
     29 H1        -11.6806  -42.3421   27.6858 H          1 <1>        0.000
     30 H2        -10.3961  -41.2542   28.0570 H          1 <1>        0.000
     31 H4         -9.9180  -45.3260   28.9420 H          1 <1>        0.000
     32 H5        -10.8389  -44.8789   27.4775 H          1 <1>        0.000
     33 C1         -8.9660  -42.0400   33.4600 C.2        1 <1>        0.110
     34 O1         -9.7450  -41.1690   33.1040 O.2        1 <1>       -0.150
     35 O2         -8.2240  -41.9270   34.5670 O.3        1 <1>        0.410
     36 H2         -8.3671  -41.1124   35.0344 H          1 <1>        0.000
     37 N1        -15.4760  -42.7000   28.6940 N.4        1 <1>        1.000
     38 C1        -15.3520  -43.6680   29.8060 C.3        1 <1>        0.030
     39 H2        -16.4106  -42.3272   28.6340 H          1 <1>        0.000
     40 H3        -14.8467  -41.9216   28.8131 H          1 <1>        0.000
     41 H6        -16.0450  -44.5100   29.6620 H          1 <1>        0.000
     42 H7        -15.5878  -43.1843   30.7654 H          1 <1>        0.000
     43 H1        -15.2629  -43.1302   27.8077 H          1 <1>        0.000
@<TRIPOS>BOND
     1    3    2 ar 
     2    3    4 ar 
     3    2    6 ar 
     4    4    1 ar 
     5    6    5 ar 
     6    1    5 ar 
     7    1    7 1  
     8    2    8 1  
     9    3    9 1  
    10   10   11 1  
    11   10   12 1  
    12   10   13 1  
    13   12   14 1  
    14    6   10 1  
    15   15   16 1  
    16   15   17 1  
    17    4   15 1  
    18   18   19 1  
    19   18   22 1  
    20   19   20 2  
    21   20   21 1  
    22   21   22 2  
    23   18   23 1  
    24   20   24 1  
    25   15   21 1  
    26   25   26 am 
    27   26   27 2  
    28   26   28 1  
    29   25   29 1  
    30   25   30 1  
    31   28   31 1  
    32   28   32 1  
    33   22   28 1  
    34   33   34 2  
    35   33   35 1  
    36   35   36 1  
    37    5   33 1  
    38   37   38 1  
    39   37   39 1  
    40   37   40 1  
    41   38   41 1  
    42   38   42 1  
    43   37   43 1  
    44   19   38 1  
# Name:          No_5_166
# Creation time: Thu Mar 21 10:00:55 2024


@<TRIPOS>MOLECULE
000003_000003
   43    44     1     1     1
SMALL
USER_CHARGES


@<TRIPOS>ATOM
      1 C17        -9.9380  -44.0780   32.3390 C.ar       1 <1>        0.210
      2 C20        -7.4650  -44.7920   31.3410 C.ar       1 <1>        0.110
      3 C21        -8.5840  -45.5640   31.0680 C.ar       1 <1>        0.230
      4 C16        -9.8330  -45.1980   31.5350 C.ar       1 <1>        0.170
      5 C18        -8.8360  -43.2880   32.6200 C.ar       1 <1>        0.200
      6 C19        -7.6280  -43.6740   32.1130 C.ar       1 <1>        0.060
      7 H         -10.9020  -43.8130   32.7580 H          1 <1>        0.000
      8 H          -6.4902  -45.0660   30.9541 H          1 <1>        0.000
      9 H          -8.4780  -46.4683   30.4798 H          1 <1>        0.000
     10 C1         -6.4070  -42.8150   32.4270 C.3        1 <1>        0.060
     11 H2         -6.7182  -41.7674   32.5521 H          1 <1>        0.000
     12 O3         -5.7960  -43.2790   33.6340 O.3        1 <1>        0.560
     13 H4         -5.6862  -42.8870   31.5992 H          1 <1>        0.000
     14 H6         -5.5241  -44.1836   33.5330 H          1 <1>        0.000
     15 C1        -11.0620  -46.0530   31.2420 C.3        1 <1>        0.000
     16 H1        -10.7659  -46.9273   30.6438 H          1 <1>        0.000
     17 H4        -11.5078  -46.3898   32.1895 H          1 <1>        0.000
     18 N1        -13.0070  -44.0280   29.0040 N.pl3      1 <1>        0.250
     19 C1        -13.9540  -44.2090   29.8780 C.2        1 <1>        0.050
     20 C2        -13.4590  -44.9680   30.8580 C.2        1 <1>        0.100
     21 C3        -12.0660  -45.2400   30.4780 C.2        1 <1>        0.050
     22 C4        -11.8860  -44.6120   29.3140 C.2        1 <1>        0.030
     23 H1        -13.1330  -43.4739   28.1449 H          1 <1>        0.000
     24 H3        -13.9746  -45.3147   31.7523 H          1 <1>        0.000
     25 N         -10.7640  -42.1840   28.0530 N.am       1 <1>        0.090
     26 C         -10.0230  -43.2030   28.5390 C.2        1 <1>        0.040
     27 O          -8.9010  -43.0380   28.9930 O.2        1 <1>        0.070
     28 C4        -10.6150  -44.5900   28.5150 C.3        1 <1>        0.000
     29 H1        -11.6806  -42.3421   27.6858 H          1 <1>        0.000
     30 H2        -10.3961  -41.2542   28.0570 H          1 <1>        0.000
     31 H4         -9.9180  -45.3260   28.9420 H          1 <1>        0.000
     32 H5        -10.8389  -44.8789   27.4775 H          1 <1>        0.000
     33 C1         -8.9660  -42.0400   33.4600 C.2        1 <1>        0.110
     34 O1         -9.7450  -41.1690   33.1040 O.2        1 <1>       -0.150
     35 O2         -8.2240  -41.9270   34.5670 O.3        1 <1>        0.410
     36 H2         -8.3671  -41.1124   35.0344 H          1 <1>        0.000
     37 N1        -15.6310  -42.8000   30.9720 N.4        1 <1>        0.990
     38 C1        -15.3520  -43.6680   29.8060 C.3        1 <1>        0.030
     39 H2        -16.5677  -42.4291   30.9380 H          1 <1>        0.000
     40 H3        -15.5370  -43.3071   31.8381 H          1 <1>        0.000
     41 H6        -15.4590  -43.1008   28.8696 H          1 <1>        0.000
     42 H7        -16.0527  -44.5156   29.7820 H          1 <1>        0.000
     43 H1        -14.9960  -42.0180   31.0080 H          1 <1>        0.000
@<TRIPOS>BOND
     1    3    2 ar 
     2    3    4 ar 
     3    2    6 ar 
     4    4    1 ar 
     5    6    5 ar 
     6    1    5 ar 
     7    1    7 1  
     8    2    8 1  
     9    3    9 1  
    10   10   11 1  
    11   10   12 1  
    12   10   13 1  
    13   12   14 1  
    14    6   10 1  
    15   15   16 1  
    16   15   17 1  
    17    4   15 1  
    18   18   19 1  
    19   18   22 1  
    20   19   20 2  
    21   20   21 1  
    22   21   22 2  
    23   18   23 1  
    24   20   24 1  
    25   15   21 1  
    26   25   26 am 
    27   26   27 2  
    28   26   28 1  
    29   25   29 1  
    30   25   30 1  
    31   28   31 1  
    32   28   32 1  
    33   22   28 1  
    34   33   34 2  
    35   33   35 1  
    36   35   36 1  
    37    5   33 1  
    38   37   38 1  
    39   37   39 1  
    40   37   40 1  
    41   38   41 1  
    42   38   42 1  
    43   37   43 1  
    44   19   38 1  

# Name:          No_6_48
# Creation time: Thu Mar 21 10:15:01 2024


@<TRIPOS>MOLECULE
000001_000001
   45    47     1     1     1
SMALL
USER_CHARGES


@<TRIPOS>ATOM
      1 C17        -9.9380  -44.0780   32.3390 C.ar       1 <1>        0.190
      2 C20        -7.4650  -44.7920   31.3410 C.ar       1 <1>        0.110
      3 C21        -8.5840  -45.5640   31.0680 C.ar       1 <1>        0.230
      4 C16        -9.8330  -45.1980   31.5350 C.ar       1 <1>        0.170
      5 C18        -8.8360  -43.2880   32.6200 C.ar       1 <1>        0.210
      6 C19        -7.6280  -43.6740   32.1130 C.ar       1 <1>        0.060
      7 H          -6.4902  -45.0660   30.9541 H          1 <1>        0.000
      8 H          -8.4780  -46.4683   30.4798 H          1 <1>        0.000
      9 H          -8.9290  -42.3920   33.2230 H          1 <1>        0.000
     10 N1         -5.5590  -43.4750   33.4440 N.4        1 <1>        1.020
     11 C1         -6.4070  -42.8150   32.4270 C.3        1 <1>        0.060
     12 H2         -6.0642  -43.6241   34.3034 H          1 <1>        0.000
     13 H3         -5.2331  -44.3736   33.1241 H          1 <1>        0.000
     14 H5         -5.8419  -42.6610   31.4959 H          1 <1>        0.000
     15 H6         -6.7541  -41.8368   32.7911 H          1 <1>        0.000
     16 H1         -4.7470  -42.9190   33.6620 H          1 <1>        0.000
     17 C1        -11.2940  -43.7050   32.9280 C.3        1 <1>        0.030
     18 H1        -12.0485  -44.4366   32.6032 H          1 <1>        0.000
     19 H2        -11.5820  -42.7020   32.5800 H          1 <1>        0.000
     20 H3        -11.2300  -43.7080   34.0261 H          1 <1>        0.000
     21 C1        -11.0620  -46.0530   31.2420 C.3        1 <1>        0.000
     22 H2        -10.7659  -46.9273   30.6438 H          1 <1>        0.000
     23 H3        -11.5078  -46.3898   32.1895 H          1 <1>        0.000
     24 N1        -12.0320  -45.2670   30.5040 N.pl3      1 <1>        0.350
     25 C1        -13.3300  -45.2860   30.6540 C.2        1 <1>        0.100
     26 N2        -13.8990  -44.4800   29.8550 N.2        1 <1>        0.080
     27 C2        -13.0960  -42.8990   28.0950 C.ar       1 <1>        0.060
     28 C3        -11.8880  -42.4770   27.5220 C.ar       1 <1>        0.210
     29 C4        -10.6510  -42.9940   27.9460 C.ar       1 <1>        0.190
     30 C5        -10.5630  -43.9560   28.9630 C.ar       1 <1>        0.180
     31 C6        -11.7690  -44.3710   29.5250 C.ar       1 <1>        0.060
     32 C7        -12.9830  -43.8560   29.1000 C.ar       1 <1>        0.070
     33 H2        -13.8662  -45.9092   31.3682 H          1 <1>        0.000
     34 H4        -11.9110  -41.7345   26.7325 H          1 <1>        0.000
     35 H5         -9.7401  -42.6400   27.4770 H          1 <1>        0.000
     36 H6         -9.6133  -44.3589   29.2959 H          1 <1>        0.000
     37 C         -14.8080  -42.7460   26.5440 C.cat      1 <1>        0.090
     38 N         -14.2940  -42.4140   27.7040 N.pl3      1 <1>        0.530
     39 N         -14.1580  -43.5590   25.7470 N.pl3      1 <1>        0.100
     40 N1        -15.9730  -42.2650   26.1820 N.pl3      1 <1>        0.080
     41 H2        -14.7923  -41.7766   28.3414 H          1 <1>        0.000
     42 H3        -14.5489  -43.8290   24.8331 H          1 <1>        0.000
     43 H4        -13.2426  -43.9462   26.0171 H          1 <1>        0.000
     44 H5        -16.4959  -41.6251   26.7969 H          1 <1>        0.000
     45 H6        -16.3899  -42.5159   25.2742 H          1 <1>        0.000
@<TRIPOS>BOND
     1    3    2 ar 
     2    3    4 ar 
     3    2    6 ar 
     4    4    1 ar 
     5    6    5 ar 
     6    1    5 ar 
     7    2    7 1  
     8    3    8 1  
     9    5    9 1  
    10   10   11 1  
    11   10   12 1  
    12   10   13 1  
    13   11   14 1  
    14   11   15 1  
    15   10   16 1  
    16    6   11 1  
    17   17   18 1  
    18   17   19 1  
    19   17   20 1  
    20    1   17 1  
    21   21   22 1  
    22   21   23 1  
    23    4   21 1  
    24   25   24 1  
    25   24   31 1  
    26   26   25 2  
    27   32   26 1  
    28   27   28 ar 
    29   27   32 ar 
    30   28   29 ar 
    31   29   30 ar 
    32   30   31 ar 
    33   31   32 ar 
    34   25   33 1  
    35   28   34 1  
    36   29   35 1  
    37   30   36 1  
    38   21   24 1  
    39   37   38 ar 
    40   37   39 ar 
    41   37   40 ar 
    42   38   41 1  
    43   39   42 1  
    44   39   43 1  
    45   40   44 1  
    46   40   45 1  
    47   27   38 1  
# Name:          No_6_47
# Creation time: Thu Mar 21 10:15:01 2024


@<TRIPOS>MOLECULE
000001_000002
   45    47     1     1     1
SMALL
USER_CHARGES


@<TRIPOS>ATOM
      1 C17        -9.9380  -44.0780   32.3390 C.ar       1 <1>        0.190
      2 C20        -7.4650  -44.7920   31.3410 C.ar       1 <1>        0.110
      3 C21        -8.5840  -45.5640   31.0680 C.ar       1 <1>        0.230
      4 C16        -9.8330  -45.1980   31.5350 C.ar       1 <1>        0.170
      5 C18        -8.8360  -43.2880   32.6200 C.ar       1 <1>        0.210
      6 C19        -7.6280  -43.6740   32.1130 C.ar       1 <1>        0.060
      7 H          -6.4902  -45.0660   30.9541 H          1 <1>        0.000
      8 H          -8.4780  -46.4683   30.4798 H          1 <1>        0.000
      9 H          -8.9290  -42.3920   33.2230 H          1 <1>        0.000
     10 N1         -5.5590  -43.4750   33.4440 N.4        1 <1>        1.020
     11 C1         -6.4070  -42.8150   32.4270 C.3        1 <1>        0.060
     12 H2         -6.0642  -43.6241   34.3034 H          1 <1>        0.000
     13 H3         -5.2331  -44.3736   33.1241 H          1 <1>        0.000
     14 H5         -5.8419  -42.6610   31.4959 H          1 <1>        0.000
     15 H6         -6.7541  -41.8368   32.7911 H          1 <1>        0.000
     16 H1         -4.7470  -42.9190   33.6620 H          1 <1>        0.000
     17 C1        -11.2940  -43.7050   32.9280 C.3        1 <1>        0.030
     18 H1        -12.0485  -44.4366   32.6032 H          1 <1>        0.000
     19 H2        -11.5820  -42.7020   32.5800 H          1 <1>        0.000
     20 H3        -11.2300  -43.7080   34.0261 H          1 <1>        0.000
     21 C1        -11.0620  -46.0530   31.2420 C.3        1 <1>        0.000
     22 H2        -10.7659  -46.9273   30.6438 H          1 <1>        0.000
     23 H3        -11.5078  -46.3898   32.1895 H          1 <1>        0.000
     24 N1        -12.0320  -45.2670   30.5040 N.pl3      1 <1>        0.350
     25 C1        -13.3300  -45.2860   30.6540 C.2        1 <1>        0.100
     26 N2        -13.8990  -44.4800   29.8550 N.2        1 <1>        0.080
     27 C2        -13.0960  -42.8990   28.0950 C.ar       1 <1>        0.060
     28 C3        -11.8880  -42.4770   27.5220 C.ar       1 <1>        0.210
     29 C4        -10.6510  -42.9940   27.9460 C.ar       1 <1>        0.190
     30 C5        -10.5630  -43.9560   28.9630 C.ar       1 <1>        0.180
     31 C6        -11.7690  -44.3710   29.5250 C.ar       1 <1>        0.060
     32 C7        -12.9830  -43.8560   29.1000 C.ar       1 <1>        0.070
     33 H2        -13.8662  -45.9092   31.3682 H          1 <1>        0.000
     34 H4        -11.9110  -41.7345   26.7325 H          1 <1>        0.000
     35 H5         -9.7401  -42.6400   27.4770 H          1 <1>        0.000
     36 H6         -9.6133  -44.3589   29.2959 H          1 <1>        0.000
     37 C         -14.6790  -42.4990   26.4530 C.cat      1 <1>        0.090
     38 N         -14.2940  -42.4140   27.7040 N.pl3      1 <1>        0.530
     39 N         -13.8960  -43.0600   25.5630 N.pl3      1 <1>        0.090
     40 N1        -15.8460  -42.0220   26.0920 N.pl3      1 <1>        0.080
     41 H2        -14.8970  -41.9760   28.4150 H          1 <1>        0.000
     42 H3        -14.1840  -43.1340   24.5769 H          1 <1>        0.000
     43 H4        -12.9766  -43.4392   25.8311 H          1 <1>        0.000
     44 H5        -16.4709  -41.5780   26.7799 H          1 <1>        0.000
     45 H6        -16.1622  -42.0810   25.1135 H          1 <1>        0.000
@<TRIPOS>BOND
     1    3    2 ar 
     2    3    4 ar 
     3    2    6 ar 
     4    4    1 ar 
     5    6    5 ar 
     6    1    5 ar 
     7    2    7 1  
     8    3    8 1  
     9    5    9 1  
    10   10   11 1  
    11   10   12 1  
    12   10   13 1  
    13   11   14 1  
    14   11   15 1  
    15   10   16 1  
    16    6   11 1  
    17   17   18 1  
    18   17   19 1  
    19   17   20 1  
    20    1   17 1  
    21   21   22 1  
    22   21   23 1  
    23    4   21 1  
    24   25   24 1  
    25   24   31 1  
    26   26   25 2  
    27   32   26 1  
    28   27   28 ar 
    29   27   32 ar 
    30   28   29 ar 
    31   29   30 ar 
    32   30   31 ar 
    33   31   32 ar 
    34   25   33 1  
    35   28   34 1  
    36   29   35 1  
    37   30   36 1  
    38   21   24 1  
    39   37   38 ar 
    40   37   39 ar 
    41   37   40 ar 
    42   38   41 1  
    43   39   42 1  
    44   39   43 1  
    45   40   44 1  
    46   40   45 1  
    47   27   38 1  
# Name:          No_6_49
# Creation time: Thu Mar 21 10:15:01 2024


@<TRIPOS>MOLECULE
000001_000003
   45    47     1     1     1
SMALL
USER_CHARGES


@<TRIPOS>ATOM
      1 C17        -9.9380  -44.0780   32.3390 C.ar       1 <1>        0.190
      2 C20        -7.4650  -44.7920   31.3410 C.ar       1 <1>        0.110
      3 C21        -8.5840  -45.5640   31.0680 C.ar       1 <1>        0.230
      4 C16        -9.8330  -45.1980   31.5350 C.ar       1 <1>        0.170
      5 C18        -8.8360  -43.2880   32.6200 C.ar       1 <1>        0.210
      6 C19        -7.6280  -43.6740   32.1130 C.ar       1 <1>        0.060
      7 H          -6.4902  -45.0660   30.9541 H          1 <1>        0.000
      8 H          -8.4780  -46.4683   30.4798 H          1 <1>        0.000
      9 H          -8.9290  -42.3920   33.2230 H          1 <1>        0.000
     10 N1         -5.5590  -43.4750   33.4440 N.4        1 <1>        1.020
     11 C1         -6.4070  -42.8150   32.4270 C.3        1 <1>        0.060
     12 H2         -6.0642  -43.6241   34.3034 H          1 <1>        0.000
     13 H3         -5.2331  -44.3736   33.1241 H          1 <1>        0.000
     14 H5         -5.8419  -42.6610   31.4959 H          1 <1>        0.000
     15 H6         -6.7541  -41.8368   32.7911 H          1 <1>        0.000
     16 H1         -4.7470  -42.9190   33.6620 H          1 <1>        0.000
     17 C1        -11.2940  -43.7050   32.9280 C.3        1 <1>        0.030
     18 H1        -12.0485  -44.4366   32.6032 H          1 <1>        0.000
     19 H2        -11.5820  -42.7020   32.5800 H          1 <1>        0.000
     20 H3        -11.2300  -43.7080   34.0261 H          1 <1>        0.000
     21 C1        -11.0620  -46.0530   31.2420 C.3        1 <1>        0.000
     22 H2        -10.7659  -46.9273   30.6438 H          1 <1>        0.000
     23 H3        -11.5078  -46.3898   32.1895 H          1 <1>        0.000
     24 N1        -12.0320  -45.2670   30.5040 N.pl3      1 <1>        0.350
     25 C1        -13.3300  -45.2860   30.6540 C.2        1 <1>        0.100
     26 N2        -13.8990  -44.4800   29.8550 N.2        1 <1>        0.080
     27 C2        -13.0960  -42.8990   28.0950 C.ar       1 <1>        0.060
     28 C3        -11.8880  -42.4770   27.5220 C.ar       1 <1>        0.210
     29 C4        -10.6510  -42.9940   27.9460 C.ar       1 <1>        0.190
     30 C5        -10.5630  -43.9560   28.9630 C.ar       1 <1>        0.180
     31 C6        -11.7690  -44.3710   29.5250 C.ar       1 <1>        0.060
     32 C7        -12.9830  -43.8560   29.1000 C.ar       1 <1>        0.070
     33 H2        -13.8662  -45.9092   31.3682 H          1 <1>        0.000
     34 H4        -11.9110  -41.7345   26.7325 H          1 <1>        0.000
     35 H5         -9.7401  -42.6400   27.4770 H          1 <1>        0.000
     36 H6         -9.6133  -44.3589   29.2959 H          1 <1>        0.000
     37 C         -15.1260  -43.1540   27.0100 C.cat      1 <1>        0.090
     38 N         -14.2940  -42.4140   27.7040 N.pl3      1 <1>        0.530
     39 N         -14.7980  -44.3820   26.6870 N.pl3      1 <1>       -0.050
     40 N1        -16.2850  -42.6650   26.6390 N.pl3      1 <1>        0.070
     41 H2        -14.5361  -41.4475   27.9651 H          1 <1>        0.000
     42 H3        -15.4410  -44.9750   26.1430 H          1 <1>        0.000
     43 H4        -13.8916  -44.7802   26.9711 H          1 <1>        0.000
     44 H5        -16.5559  -41.7022   26.8850 H          1 <1>        0.000
     45 H6        -16.9485  -43.2335   26.0936 H          1 <1>        0.000
@<TRIPOS>BOND
     1    3    2 ar 
     2    3    4 ar 
     3    2    6 ar 
     4    4    1 ar 
     5    6    5 ar 
     6    1    5 ar 
     7    2    7 1  
     8    3    8 1  
     9    5    9 1  
    10   10   11 1  
    11   10   12 1  
    12   10   13 1  
    13   11   14 1  
    14   11   15 1  
    15   10   16 1  
    16    6   11 1  
    17   17   18 1  
    18   17   19 1  
    19   17   20 1  
    20    1   17 1  
    21   21   22 1  
    22   21   23 1  
    23    4   21 1  
    24   25   24 1  
    25   24   31 1  
    26   26   25 2  
    27   32   26 1  
    28   27   28 ar 
    29   27   32 ar 
    30   28   29 ar 
    31   29   30 ar 
    32   30   31 ar 
    33   31   32 ar 
    34   25   33 1  
    35   28   34 1  
    36   29   35 1  
    37   30   36 1  
    38   21   24 1  
    39   37   38 ar 
    40   37   39 ar 
    41   37   40 ar 
    42   38   41 1  
    43   39   42 1  
    44   39   43 1  
    45   40   44 1  
    46   40   45 1  
    47   27   38 1  
# Name:          No_6_139
# Creation time: Thu Mar 21 10:15:01 2024


@<TRIPOS>MOLECULE
000001_000004
   45    47     1     1     1
SMALL
USER_CHARGES


@<TRIPOS>ATOM
      1 C17        -9.9380  -44.0780   32.3390 C.ar       1 <1>        0.190
      2 C20        -7.4650  -44.7920   31.3410 C.ar       1 <1>        0.110
      3 C21        -8.5840  -45.5640   31.0680 C.ar       1 <1>        0.230
      4 C16        -9.8330  -45.1980   31.5350 C.ar       1 <1>        0.170
      5 C18        -8.8360  -43.2880   32.6200 C.ar       1 <1>        0.210
      6 C19        -7.6280  -43.6740   32.1130 C.ar       1 <1>        0.060
      7 H          -6.4902  -45.0660   30.9541 H          1 <1>        0.000
      8 H          -8.4780  -46.4683   30.4798 H          1 <1>        0.000
      9 H          -8.9290  -42.3920   33.2230 H          1 <1>        0.000
     10 N1         -5.5590  -43.4750   33.4440 N.4        1 <1>        1.020
     11 C1         -6.4070  -42.8150   32.4270 C.3        1 <1>        0.060
     12 H2         -6.0642  -43.6241   34.3034 H          1 <1>        0.000
     13 H3         -5.2331  -44.3736   33.1241 H          1 <1>        0.000
     14 H5         -5.8419  -42.6610   31.4959 H          1 <1>        0.000
     15 H6         -6.7541  -41.8368   32.7911 H          1 <1>        0.000
     16 H1         -4.7470  -42.9190   33.6620 H          1 <1>        0.000
     17 C1        -11.2940  -43.7050   32.9280 C.3        1 <1>        0.030
     18 H1        -12.0485  -44.4366   32.6032 H          1 <1>        0.000
     19 H2        -11.5820  -42.7020   32.5800 H          1 <1>        0.000
     20 H3        -11.2300  -43.7080   34.0261 H          1 <1>        0.000
     21 C1        -11.0620  -46.0530   31.2420 C.3        1 <1>        0.000
     22 H2        -10.7659  -46.9273   30.6438 H          1 <1>        0.000
     23 H3        -11.5078  -46.3898   32.1895 H          1 <1>        0.000
     24 N1        -12.0320  -45.2670   30.5040 N.pl3      1 <1>        0.350
     25 C1        -13.3300  -45.2860   30.6540 C.2        1 <1>        0.100
     26 N2        -13.8990  -44.4800   29.8550 N.2        1 <1>        0.080
     27 C2        -13.0960  -42.8990   28.0950 C.ar       1 <1>        0.170
     28 C3        -11.8880  -42.4770   27.5220 C.ar       1 <1>        0.210
     29 C4        -10.6510  -42.9940   27.9460 C.ar       1 <1>        0.080
     30 C5        -10.5630  -43.9560   28.9630 C.ar       1 <1>        0.180
     31 C6        -11.7690  -44.3710   29.5250 C.ar       1 <1>        0.060
     32 C7        -12.9830  -43.8560   29.1000 C.ar       1 <1>        0.070
     33 H2        -13.8662  -45.9092   31.3682 H          1 <1>        0.000
     34 H3        -14.0579  -42.5100   27.7810 H          1 <1>        0.000
     35 H4        -11.9110  -41.7345   26.7325 H          1 <1>        0.000
     36 H6         -9.6133  -44.3589   29.2959 H          1 <1>        0.000
     37 C          -9.2150  -41.2760   27.3540 C.cat      1 <1>        0.090
     38 N          -9.5170  -42.5530   27.3620 N.pl3      1 <1>        0.060
     39 N         -10.0200  -40.4090   27.9190 N.pl3      1 <1>       -0.070
     40 N1         -8.1090  -40.8680   26.7810 N.pl3      1 <1>        0.110
     41 H2         -8.8949  -43.2461   26.9220 H          1 <1>        0.000
     42 H3         -9.7971  -39.4034   27.9220 H          1 <1>        0.000
     43 H4        -10.8926  -40.7149   28.3728 H          1 <1>        0.000
     44 H5         -7.4662  -41.5367   26.3332 H          1 <1>        0.000
     45 H6         -7.8580  -39.8691   26.7670 H          1 <1>        0.000
@<TRIPOS>BOND
     1    3    2 ar 
     2    3    4 ar 
     3    2    6 ar 
     4    4    1 ar 
     5    6    5 ar 
     6    1    5 ar 
     7    2    7 1  
     8    3    8 1  
     9    5    9 1  
    10   10   11 1  
    11   10   12 1  
    12   10   13 1  
    13   11   14 1  
    14   11   15 1  
    15   10   16 1  
    16    6   11 1  
    17   17   18 1  
    18   17   19 1  
    19   17   20 1  
    20    1   17 1  
    21   21   22 1  
    22   21   23 1  
    23    4   21 1  
    24   25   24 1  
    25   24   31 1  
    26   26   25 2  
    27   32   26 1  
    28   27   28 ar 
    29   27   32 ar 
    30   28   29 ar 
    31   29   30 ar 
    32   30   31 ar 
    33   31   32 ar 
    34   25   33 1  
    35   27   34 1  
    36   28   35 1  
    37   30   36 1  
    38   21   24 1  
    39   37   38 ar 
    40   37   39 ar 
    41   37   40 ar 
    42   38   41 1  
    43   39   42 1  
    44   39   43 1  
    45   40   44 1  
    46   40   45 1  
    47   29   38 1  
# Name:          No_7_113
# Creation time: Thu Mar 21 10:15:01 2024


@<TRIPOS>MOLECULE
000002_000001
   49    51     1     1     1
SMALL
USER_CHARGES


@<TRIPOS>ATOM
      1 C17        -9.9380  -44.0780   32.3390 C.ar       1 <1>        0.190
      2 C20        -7.4650  -44.7920   31.3410 C.ar       1 <1>        0.110
      3 C21        -8.5840  -45.5640   31.0680 C.ar       1 <1>        0.230
      4 C16        -9.8330  -45.1980   31.5350 C.ar       1 <1>        0.170
      5 C18        -8.8360  -43.2880   32.6200 C.ar       1 <1>        0.210
      6 C19        -7.6280  -43.6740   32.1130 C.ar       1 <1>        0.060
      7 H          -6.4902  -45.0660   30.9541 H          1 <1>        0.000
      8 H          -8.4780  -46.4683   30.4798 H          1 <1>        0.000
      9 H          -8.9290  -42.3920   33.2230 H          1 <1>        0.000
     10 N1         -5.5590  -43.4750   33.4440 N.4        1 <1>        1.020
     11 C1         -6.4070  -42.8150   32.4270 C.3        1 <1>        0.060
     12 H2         -6.0642  -43.6241   34.3034 H          1 <1>        0.000
     13 H3         -5.2331  -44.3736   33.1241 H          1 <1>        0.000
     14 H5         -5.8419  -42.6610   31.4959 H          1 <1>        0.000
     15 H6         -6.7541  -41.8368   32.7911 H          1 <1>        0.000
     16 H1         -4.7470  -42.9190   33.6620 H          1 <1>        0.000
     17 C1        -11.2940  -43.7050   32.9280 C.3        1 <1>        0.030
     18 H1        -12.0485  -44.4366   32.6032 H          1 <1>        0.000
     19 H2        -11.5820  -42.7020   32.5800 H          1 <1>        0.000
     20 H3        -11.2300  -43.7080   34.0261 H          1 <1>        0.000
     21 C1        -11.0620  -46.0530   31.2420 C.3        1 <1>        0.000
     22 H2        -10.7659  -46.9273   30.6438 H          1 <1>        0.000
     23 H3        -11.5078  -46.3898   32.1895 H          1 <1>        0.000
     24 N1        -12.0320  -45.2670   30.5040 N.pl3      1 <1>        0.350
     25 C1        -13.3300  -45.2860   30.6540 C.2        1 <1>        0.100
     26 N2        -13.8990  -44.4800   29.8550 N.2        1 <1>        0.080
     27 C2        -13.0960  -42.8990   28.0950 C.ar       1 <1>        0.120
     28 C3        -11.8880  -42.4770   27.5220 C.ar       1 <1>        0.210
     29 C4        -10.6510  -42.9940   27.9460 C.ar       1 <1>        0.190
     30 C5        -10.5630  -43.9560   28.9630 C.ar       1 <1>        0.180
     31 C6        -11.7690  -44.3710   29.5250 C.ar       1 <1>        0.060
     32 C7        -12.9830  -43.8560   29.1000 C.ar       1 <1>        0.070
     33 H2        -13.8662  -45.9092   31.3682 H          1 <1>        0.000
     34 H4        -11.9110  -41.7345   26.7325 H          1 <1>        0.000
     35 H5         -9.7401  -42.6400   27.4770 H          1 <1>        0.000
     36 H6         -9.6133  -44.3589   29.2959 H          1 <1>        0.000
     37 C         -14.1200  -42.8720   25.3990 C.2        1 <1>        0.030
     38 O         -13.9050  -44.0310   25.7190 O.2        1 <1>        0.100
     39 O         -14.4100  -41.9060   26.2830 O.3        1 <1>        0.150
     40 C5        -14.4490  -42.3510   27.6530 C.3        1 <1>       -0.130
     41 H1        -15.2236  -43.1176   27.8019 H          1 <1>        0.000
     42 H2        -14.6941  -41.4827   28.2822 H          1 <1>        0.000
     43 C1        -14.7630  -41.1950   23.7210 C.2        1 <1>        0.090
     44 O2        -15.7220  -41.1390   22.9680 O.2        1 <1>        0.110
     45 O3        -14.3480  -40.1150   24.3350 O.3        1 <1>        0.440
     46 C4        -14.0550  -42.5090   23.9440 C.3        1 <1>       -0.030
     47 H5        -14.8917  -39.3744   24.0931 H          1 <1>        0.000
     48 H6        -14.5430  -43.2950   23.3490 H          1 <1>        0.000
     49 H7        -13.0031  -42.4160   23.6360 H          1 <1>        0.000
@<TRIPOS>BOND
     1    3    2 ar 
     2    3    4 ar 
     3    2    6 ar 
     4    4    1 ar 
     5    6    5 ar 
     6    1    5 ar 
     7    2    7 1  
     8    3    8 1  
     9    5    9 1  
    10   10   11 1  
    11   10   12 1  
    12   10   13 1  
    13   11   14 1  
    14   11   15 1  
    15   10   16 1  
    16    6   11 1  
    17   17   18 1  
    18   17   19 1  
    19   17   20 1  
    20    1   17 1  
    21   21   22 1  
    22   21   23 1  
    23    4   21 1  
    24   25   24 1  
    25   24   31 1  
    26   26   25 2  
    27   32   26 1  
    28   27   28 ar 
    29   27   32 ar 
    30   28   29 ar 
    31   29   30 ar 
    32   30   31 ar 
    33   31   32 ar 
    34   25   33 1  
    35   28   34 1  
    36   29   35 1  
    37   30   36 1  
    38   21   24 1  
    39   37   38 2  
    40   37   39 1  
    41   39   40 1  
    42   40   41 1  
    43   40   42 1  
    44   27   40 1  
    45   43   44 2  
    46   43   45 1  
    47   43   46 1  
    48   45   47 1  
    49   46   48 1  
    50   46   49 1  
    51   37   46 1  
# Name:          No_6_162
# Creation time: Thu Mar 21 10:15:01 2024


@<TRIPOS>MOLECULE
000003_000001
   38    40     1     1     1
SMALL
USER_CHARGES


@<TRIPOS>ATOM
      1 C17        -9.9380  -44.0780   32.3390 C.ar       1 <1>        0.190
      2 C20        -7.4650  -44.7920   31.3410 C.ar       1 <1>        0.110
      3 C21        -8.5840  -45.5640   31.0680 C.ar       1 <1>        0.230
      4 C16        -9.8330  -45.1980   31.5350 C.ar       1 <1>        0.170
      5 C18        -8.8360  -43.2880   32.6200 C.ar       1 <1>        0.210
      6 C19        -7.6280  -43.6740   32.1130 C.ar       1 <1>        0.060
      7 H          -6.4902  -45.0660   30.9541 H          1 <1>        0.000
      8 H          -8.4780  -46.4683   30.4798 H          1 <1>        0.000
      9 H          -8.9290  -42.3920   33.2230 H          1 <1>        0.000
     10 N1         -5.5590  -43.4750   33.4440 N.4        1 <1>        1.020
     11 C1         -6.4070  -42.8150   32.4270 C.3        1 <1>        0.060
     12 H2         -6.0642  -43.6241   34.3034 H          1 <1>        0.000
     13 H3         -5.2331  -44.3736   33.1241 H          1 <1>        0.000
     14 H5         -5.8419  -42.6610   31.4959 H          1 <1>        0.000
     15 H6         -6.7541  -41.8368   32.7911 H          1 <1>        0.000
     16 H1         -4.7470  -42.9190   33.6620 H          1 <1>        0.000
     17 C1        -11.2940  -43.7050   32.9280 C.3        1 <1>        0.030
     18 H1        -12.0485  -44.4366   32.6032 H          1 <1>        0.000
     19 H2        -11.5820  -42.7020   32.5800 H          1 <1>        0.000
     20 H3        -11.2300  -43.7080   34.0261 H          1 <1>        0.000
     21 C1        -11.0620  -46.0530   31.2420 C.3        1 <1>        0.000
     22 H2        -10.7659  -46.9273   30.6438 H          1 <1>        0.000
     23 H3        -11.5078  -46.3898   32.1895 H          1 <1>        0.000
     24 N1        -12.0320  -45.2670   30.5040 N.pl3      1 <1>        0.350
     25 C1        -13.3300  -45.2860   30.6540 C.2        1 <1>        0.100
     26 N2        -13.8990  -44.4800   29.8550 N.2        1 <1>        0.080
     27 C2        -13.0960  -42.8990   28.0950 C.ar       1 <1>        0.060
     28 C3        -11.8880  -42.4770   27.5220 C.ar       1 <1>        0.210
     29 C4        -10.6510  -42.9940   27.9460 C.ar       1 <1>        0.190
     30 C5        -10.5630  -43.9560   28.9630 C.ar       1 <1>        0.180
     31 C6        -11.7690  -44.3710   29.5250 C.ar       1 <1>        0.060
     32 C7        -12.9830  -43.8560   29.1000 C.ar       1 <1>        0.070
     33 H2        -13.8662  -45.9092   31.3682 H          1 <1>        0.000
     34 H4        -11.9110  -41.7345   26.7325 H          1 <1>        0.000
     35 H5         -9.7401  -42.6400   27.4770 H          1 <1>        0.000
     36 H6         -9.6133  -44.3589   29.2959 H          1 <1>        0.000
     37 O1        -14.3290  -42.4000   27.6920 O.3        1 <1>        0.400
     38 H2        -14.9273  -43.1303   27.7980 H          1 <1>        0.000
@<TRIPOS>BOND
     1    3    2 ar 
     2    3    4 ar 
     3    2    6 ar 
     4    4    1 ar 
     5    6    5 ar 
     6    1    5 ar 
     7    2    7 1  
     8    3    8 1  
     9    5    9 1  
    10   10   11 1  
    11   10   12 1  
    12   10   13 1  
    13   11   14 1  
    14   11   15 1  
    15   10   16 1  
    16    6   11 1  
    17   17   18 1  
    18   17   19 1  
    19   17   20 1  
    20    1   17 1  
    21   21   22 1  
    22   21   23 1  
    23    4   21 1  
    24   25   24 1  
    25   24   31 1  
    26   26   25 2  
    27   32   26 1  
    28   27   28 ar 
    29   27   32 ar 
    30   28   29 ar 
    31   29   30 ar 
    32   30   31 ar 
    33   31   32 ar 
    34   25   33 1  
    35   28   34 1  
    36   29   35 1  
    37   30   36 1  
    38   21   24 1  
    39   37   38 1  
    40   27   37 1  
# Name:          No_6_163
# Creation time: Thu Mar 21 10:15:01 2024


@<TRIPOS>MOLECULE
000003_000002
   38    40     1     1     1
SMALL
USER_CHARGES


@<TRIPOS>ATOM
      1 C17        -9.9380  -44.0780   32.3390 C.ar       1 <1>        0.190
      2 C20        -7.4650  -44.7920   31.3410 C.ar       1 <1>        0.110
      3 C21        -8.5840  -45.5640   31.0680 C.ar       1 <1>        0.230
      4 C16        -9.8330  -45.1980   31.5350 C.ar       1 <1>        0.170
      5 C18        -8.8360  -43.2880   32.6200 C.ar       1 <1>        0.210
      6 C19        -7.6280  -43.6740   32.1130 C.ar       1 <1>        0.060
      7 H          -6.4902  -45.0660   30.9541 H          1 <1>        0.000
      8 H          -8.4780  -46.4683   30.4798 H          1 <1>        0.000
      9 H          -8.9290  -42.3920   33.2230 H          1 <1>        0.000
     10 N1         -5.5590  -43.4750   33.4440 N.4        1 <1>        1.020
     11 C1         -6.4070  -42.8150   32.4270 C.3        1 <1>        0.060
     12 H2         -6.0642  -43.6241   34.3034 H          1 <1>        0.000
     13 H3         -5.2331  -44.3736   33.1241 H          1 <1>        0.000
     14 H5         -5.8419  -42.6610   31.4959 H          1 <1>        0.000
     15 H6         -6.7541  -41.8368   32.7911 H          1 <1>        0.000
     16 H1         -4.7470  -42.9190   33.6620 H          1 <1>        0.000
     17 C1        -11.2940  -43.7050   32.9280 C.3        1 <1>        0.030
     18 H1        -12.0485  -44.4366   32.6032 H          1 <1>        0.000
     19 H2        -11.5820  -42.7020   32.5800 H          1 <1>        0.000
     20 H3        -11.2300  -43.7080   34.0261 H          1 <1>        0.000
     21 C1        -11.0620  -46.0530   31.2420 C.3        1 <1>        0.000
     22 H2        -10.7659  -46.9273   30.6438 H          1 <1>        0.000
     23 H3        -11.5078  -46.3898   32.1895 H          1 <1>        0.000
     24 N1        -12.0320  -45.2670   30.5040 N.pl3      1 <1>        0.350
     25 C1        -13.3300  -45.2860   30.6540 C.2        1 <1>        0.100
     26 N2        -13.8990  -44.4800   29.8550 N.2        1 <1>        0.080
     27 C2        -13.0960  -42.8990   28.0950 C.ar       1 <1>        0.060
     28 C3        -11.8880  -42.4770   27.5220 C.ar       1 <1>        0.210
     29 C4        -10.6510  -42.9940   27.9460 C.ar       1 <1>        0.190
     30 C5        -10.5630  -43.9560   28.9630 C.ar       1 <1>        0.180
     31 C6        -11.7690  -44.3710   29.5250 C.ar       1 <1>        0.060
     32 C7        -12.9830  -43.8560   29.1000 C.ar       1 <1>        0.070
     33 H2        -13.8662  -45.9092   31.3682 H          1 <1>        0.000
     34 H4        -11.9110  -41.7345   26.7325 H          1 <1>        0.000
     35 H5         -9.7401  -42.6400   27.4770 H          1 <1>        0.000
     36 H6         -9.6133  -44.3589   29.2959 H          1 <1>        0.000
     37 O1        -14.3290  -42.4000   27.6920 O.3        1 <1>        0.400
     38 H2        -14.9366  -42.7028   28.3566 H          1 <1>        0.000
@<TRIPOS>BOND
     1    3    2 ar 
     2    3    4 ar 
     3    2    6 ar 
     4    4    1 ar 
     5    6    5 ar 
     6    1    5 ar 
     7    2    7 1  
     8    3    8 1  
     9    5    9 1  
    10   10   11 1  
    11   10   12 1  
    12   10   13 1  
    13   11   14 1  
    14   11   15 1  
    15   10   16 1  
    16    6   11 1  
    17   17   18 1  
    18   17   19 1  
    19   17   20 1  
    20    1   17 1  
    21   21   22 1  
    22   21   23 1  
    23    4   21 1  
    24   25   24 1  
    25   24   31 1  
    26   26   25 2  
    27   32   26 1  
    28   27   28 ar 
    29   27   32 ar 
    30   28   29 ar 
    31   29   30 ar 
    32   30   31 ar 
    33   31   32 ar 
    34   25   33 1  
    35   28   34 1  
    36   29   35 1  
    37   30   36 1  
    38   21   24 1  
    39   37   38 1  
    40   27   37 1  
# Name:          No_6_164
# Creation time: Thu Mar 21 10:15:01 2024


@<TRIPOS>MOLECULE
000003_000003
   38    40     1     1     1
SMALL
USER_CHARGES


@<TRIPOS>ATOM
      1 C17        -9.9380  -44.0780   32.3390 C.ar       1 <1>        0.190
      2 C20        -7.4650  -44.7920   31.3410 C.ar       1 <1>        0.110
      3 C21        -8.5840  -45.5640   31.0680 C.ar       1 <1>        0.230
      4 C16        -9.8330  -45.1980   31.5350 C.ar       1 <1>        0.170
      5 C18        -8.8360  -43.2880   32.6200 C.ar       1 <1>        0.210
      6 C19        -7.6280  -43.6740   32.1130 C.ar       1 <1>        0.060
      7 H          -6.4902  -45.0660   30.9541 H          1 <1>        0.000
      8 H          -8.4780  -46.4683   30.4798 H          1 <1>        0.000
      9 H          -8.9290  -42.3920   33.2230 H          1 <1>        0.000
     10 N1         -5.5590  -43.4750   33.4440 N.4        1 <1>        1.020
     11 C1         -6.4070  -42.8150   32.4270 C.3        1 <1>        0.060
     12 H2         -6.0642  -43.6241   34.3034 H          1 <1>        0.000
     13 H3         -5.2331  -44.3736   33.1241 H          1 <1>        0.000
     14 H5         -5.8419  -42.6610   31.4959 H          1 <1>        0.000
     15 H6         -6.7541  -41.8368   32.7911 H          1 <1>        0.000
     16 H1         -4.7470  -42.9190   33.6620 H          1 <1>        0.000
     17 C1        -11.2940  -43.7050   32.9280 C.3        1 <1>        0.030
     18 H1        -12.0485  -44.4366   32.6032 H          1 <1>        0.000
     19 H2        -11.5820  -42.7020   32.5800 H          1 <1>        0.000
     20 H3        -11.2300  -43.7080   34.0261 H          1 <1>        0.000
     21 C1        -11.0620  -46.0530   31.2420 C.3        1 <1>        0.000
     22 H2        -10.7659  -46.9273   30.6438 H          1 <1>        0.000
     23 H3        -11.5078  -46.3898   32.1895 H          1 <1>        0.000
     24 N1        -12.0320  -45.2670   30.5040 N.pl3      1 <1>        0.350
     25 C1        -13.3300  -45.2860   30.6540 C.2        1 <1>        0.100
     26 N2        -13.8990  -44.4800   29.8550 N.2        1 <1>        0.080
     27 C2        -13.0960  -42.8990   28.0950 C.ar       1 <1>        0.060
     28 C3        -11.8880  -42.4770   27.5220 C.ar       1 <1>        0.210
     29 C4        -10.6510  -42.9940   27.9460 C.ar       1 <1>        0.190
     30 C5        -10.5630  -43.9560   28.9630 C.ar       1 <1>        0.180
     31 C6        -11.7690  -44.3710   29.5250 C.ar       1 <1>        0.060
     32 C7        -12.9830  -43.8560   29.1000 C.ar       1 <1>        0.070
     33 H2        -13.8662  -45.9092   31.3682 H          1 <1>        0.000
     34 H4        -11.9110  -41.7345   26.7325 H          1 <1>        0.000
     35 H5         -9.7401  -42.6400   27.4770 H          1 <1>        0.000
     36 H6         -9.6133  -44.3589   29.2959 H          1 <1>        0.000
     37 O1        -14.3290  -42.4000   27.6920 O.3        1 <1>        0.400
     38 H2        -14.7906  -42.2232   28.5033 H          1 <1>        0.000
@<TRIPOS>BOND
     1    3    2 ar 
     2    3    4 ar 
     3    2    6 ar 
     4    4    1 ar 
     5    6    5 ar 
     6    1    5 ar 
     7    2    7 1  
     8    3    8 1  
     9    5    9 1  
    10   10   11 1  
    11   10   12 1  
    12   10   13 1  
    13   11   14 1  
    14   11   15 1  
    15   10   16 1  
    16    6   11 1  
    17   17   18 1  
    18   17   19 1  
    19   17   20 1  
    20    1   17 1  
    21   21   22 1  
    22   21   23 1  
    23    4   21 1  
    24   25   24 1  
    25   24   31 1  
    26   26   25 2  
    27   32   26 1  
    28   27   28 ar 
    29   27   32 ar 
    30   28   29 ar 
    31   29   30 ar 
    32   30   31 ar 
    33   31   32 ar 
    34   25   33 1  
    35   28   34 1  
    36   29   35 1  
    37   30   36 1  
    38   21   24 1  
    39   37   38 1  
    40   27   37 1  
# Name:          No_6_165
# Creation time: Thu Mar 21 10:15:01 2024


@<TRIPOS>MOLECULE
000003_000004
   38    40     1     1     1
SMALL
USER_CHARGES


@<TRIPOS>ATOM
      1 C17        -9.9380  -44.0780   32.3390 C.ar       1 <1>        0.190
      2 C20        -7.4650  -44.7920   31.3410 C.ar       1 <1>        0.110
      3 C21        -8.5840  -45.5640   31.0680 C.ar       1 <1>        0.230
      4 C16        -9.8330  -45.1980   31.5350 C.ar       1 <1>        0.170
      5 C18        -8.8360  -43.2880   32.6200 C.ar       1 <1>        0.210
      6 C19        -7.6280  -43.6740   32.1130 C.ar       1 <1>        0.060
      7 H          -6.4902  -45.0660   30.9541 H          1 <1>        0.000
      8 H          -8.4780  -46.4683   30.4798 H          1 <1>        0.000
      9 H          -8.9290  -42.3920   33.2230 H          1 <1>        0.000
     10 N1         -5.5590  -43.4750   33.4440 N.4        1 <1>        1.020
     11 C1         -6.4070  -42.8150   32.4270 C.3        1 <1>        0.060
     12 H2         -6.0642  -43.6241   34.3034 H          1 <1>        0.000
     13 H3         -5.2331  -44.3736   33.1241 H          1 <1>        0.000
     14 H5         -5.8419  -42.6610   31.4959 H          1 <1>        0.000
     15 H6         -6.7541  -41.8368   32.7911 H          1 <1>        0.000
     16 H1         -4.7470  -42.9190   33.6620 H          1 <1>        0.000
     17 C1        -11.2940  -43.7050   32.9280 C.3        1 <1>        0.030
     18 H1        -12.0485  -44.4366   32.6032 H          1 <1>        0.000
     19 H2        -11.5820  -42.7020   32.5800 H          1 <1>        0.000
     20 H3        -11.2300  -43.7080   34.0261 H          1 <1>        0.000
     21 C1        -11.0620  -46.0530   31.2420 C.3        1 <1>        0.000
     22 H2        -10.7659  -46.9273   30.6438 H          1 <1>        0.000
     23 H3        -11.5078  -46.3898   32.1895 H          1 <1>        0.000
     24 N1        -12.0320  -45.2670   30.5040 N.pl3      1 <1>        0.350
     25 C1        -13.3300  -45.2860   30.6540 C.2        1 <1>        0.100
     26 N2        -13.8990  -44.4800   29.8550 N.2        1 <1>        0.080
     27 C2        -13.0960  -42.8990   28.0950 C.ar       1 <1>        0.060
     28 C3        -11.8880  -42.4770   27.5220 C.ar       1 <1>        0.210
     29 C4        -10.6510  -42.9940   27.9460 C.ar       1 <1>        0.190
     30 C5        -10.5630  -43.9560   28.9630 C.ar       1 <1>        0.180
     31 C6        -11.7690  -44.3710   29.5250 C.ar       1 <1>        0.060
     32 C7        -12.9830  -43.8560   29.1000 C.ar       1 <1>        0.070
     33 H2        -13.8662  -45.9092   31.3682 H          1 <1>        0.000
     34 H4        -11.9110  -41.7345   26.7325 H          1 <1>        0.000
     35 H5         -9.7401  -42.6400   27.4770 H          1 <1>        0.000
     36 H6         -9.6133  -44.3589   29.2959 H          1 <1>        0.000
     37 O1        -14.3290  -42.4000   27.6920 O.3        1 <1>        0.400
     38 H2        -14.1529  -41.4987   27.4489 H          1 <1>        0.000
@<TRIPOS>BOND
     1    3    2 ar 
     2    3    4 ar 
     3    2    6 ar 
     4    4    1 ar 
     5    6    5 ar 
     6    1    5 ar 
     7    2    7 1  
     8    3    8 1  
     9    5    9 1  
    10   10   11 1  
    11   10   12 1  
    12   10   13 1  
    13   11   14 1  
    14   11   15 1  
    15   10   16 1  
    16    6   11 1  
    17   17   18 1  
    18   17   19 1  
    19   17   20 1  
    20    1   17 1  
    21   21   22 1  
    22   21   23 1  
    23    4   21 1  
    24   25   24 1  
    25   24   31 1  
    26   26   25 2  
    27   32   26 1  
    28   27   28 ar 
    29   27   32 ar 
    30   28   29 ar 
    31   29   30 ar 
    32   30   31 ar 
    33   31   32 ar 
    34   25   33 1  
    35   28   34 1  
    36   29   35 1  
    37   30   36 1  
    38   21   24 1  
    39   37   38 1  
    40   27   37 1  
# Name:          No_6_161
# Creation time: Thu Mar 21 10:15:01 2024


@<TRIPOS>MOLECULE
000003_000005
   38    40     1     1     1
SMALL
USER_CHARGES


@<TRIPOS>ATOM
      1 C17        -9.9380  -44.0780   32.3390 C.ar       1 <1>        0.190
      2 C20        -7.4650  -44.7920   31.3410 C.ar       1 <1>        0.110
      3 C21        -8.5840  -45.5640   31.0680 C.ar       1 <1>        0.230
      4 C16        -9.8330  -45.1980   31.5350 C.ar       1 <1>        0.170
      5 C18        -8.8360  -43.2880   32.6200 C.ar       1 <1>        0.210
      6 C19        -7.6280  -43.6740   32.1130 C.ar       1 <1>        0.060
      7 H          -6.4902  -45.0660   30.9541 H          1 <1>        0.000
      8 H          -8.4780  -46.4683   30.4798 H          1 <1>        0.000
      9 H          -8.9290  -42.3920   33.2230 H          1 <1>        0.000
     10 N1         -5.5590  -43.4750   33.4440 N.4        1 <1>        1.020
     11 C1         -6.4070  -42.8150   32.4270 C.3        1 <1>        0.060
     12 H2         -6.0642  -43.6241   34.3034 H          1 <1>        0.000
     13 H3         -5.2331  -44.3736   33.1241 H          1 <1>        0.000
     14 H5         -5.8419  -42.6610   31.4959 H          1 <1>        0.000
     15 H6         -6.7541  -41.8368   32.7911 H          1 <1>        0.000
     16 H1         -4.7470  -42.9190   33.6620 H          1 <1>        0.000
     17 C1        -11.2940  -43.7050   32.9280 C.3        1 <1>        0.030
     18 H1        -12.0485  -44.4366   32.6032 H          1 <1>        0.000
     19 H2        -11.5820  -42.7020   32.5800 H          1 <1>        0.000
     20 H3        -11.2300  -43.7080   34.0261 H          1 <1>        0.000
     21 C1        -11.0620  -46.0530   31.2420 C.3        1 <1>        0.000
     22 H2        -10.7659  -46.9273   30.6438 H          1 <1>        0.000
     23 H3        -11.5078  -46.3898   32.1895 H          1 <1>        0.000
     24 N1        -12.0320  -45.2670   30.5040 N.pl3      1 <1>        0.350
     25 C1        -13.3300  -45.2860   30.6540 C.2        1 <1>        0.100
     26 N2        -13.8990  -44.4800   29.8550 N.2        1 <1>        0.080
     27 C2        -13.0960  -42.8990   28.0950 C.ar       1 <1>        0.060
     28 C3        -11.8880  -42.4770   27.5220 C.ar       1 <1>        0.210
     29 C4        -10.6510  -42.9940   27.9460 C.ar       1 <1>        0.190
     30 C5        -10.5630  -43.9560   28.9630 C.ar       1 <1>        0.180
     31 C6        -11.7690  -44.3710   29.5250 C.ar       1 <1>        0.060
     32 C7        -12.9830  -43.8560   29.1000 C.ar       1 <1>        0.070
     33 H2        -13.8662  -45.9092   31.3682 H          1 <1>        0.000
     34 H4        -11.9110  -41.7345   26.7325 H          1 <1>        0.000
     35 H5         -9.7401  -42.6400   27.4770 H          1 <1>        0.000
     36 H6         -9.6133  -44.3589   29.2959 H          1 <1>        0.000
     37 O1        -14.3290  -42.4000   27.6920 O.3        1 <1>        0.400
     38 H2        -14.1440  -41.9259   26.8898 H          1 <1>        0.000
@<TRIPOS>BOND
     1    3    2 ar 
     2    3    4 ar 
     3    2    6 ar 
     4    4    1 ar 
     5    6    5 ar 
     6    1    5 ar 
     7    2    7 1  
     8    3    8 1  
     9    5    9 1  
    10   10   11 1  
    11   10   12 1  
    12   10   13 1  
    13   11   14 1  
    14   11   15 1  
    15   10   16 1  
    16    6   11 1  
    17   17   18 1  
    18   17   19 1  
    19   17   20 1  
    20    1   17 1  
    21   21   22 1  
    22   21   23 1  
    23    4   21 1  
    24   25   24 1  
    25   24   31 1  
    26   26   25 2  
    27   32   26 1  
    28   27   28 ar 
    29   27   32 ar 
    30   28   29 ar 
    31   29   30 ar 
    32   30   31 ar 
    33   31   32 ar 
    34   25   33 1  
    35   28   34 1  
    36   29   35 1  
    37   30   36 1  
    38   21   24 1  
    39   37   38 1  
    40   27   37 1  
# Name:          No_5_97
# Creation time: Thu Mar 21 10:15:01 2024


@<TRIPOS>MOLECULE
000004_000001
   41    43     1     1     1
SMALL
USER_CHARGES


@<TRIPOS>ATOM
      1 C17        -9.9380  -44.0780   32.3390 C.ar       1 <1>        0.190
      2 C20        -7.4650  -44.7920   31.3410 C.ar       1 <1>        0.110
      3 C21        -8.5840  -45.5640   31.0680 C.ar       1 <1>        0.230
      4 C16        -9.8330  -45.1980   31.5350 C.ar       1 <1>        0.170
      5 C18        -8.8360  -43.2880   32.6200 C.ar       1 <1>        0.210
      6 C19        -7.6280  -43.6740   32.1130 C.ar       1 <1>        0.060
      7 H          -6.4902  -45.0660   30.9541 H          1 <1>        0.000
      8 H          -8.4780  -46.4683   30.4798 H          1 <1>        0.000
      9 H          -8.9290  -42.3920   33.2230 H          1 <1>        0.000
     10 N1         -5.5590  -43.4750   33.4440 N.4        1 <1>        1.020
     11 C1         -6.4070  -42.8150   32.4270 C.3        1 <1>        0.060
     12 H2         -6.0642  -43.6241   34.3034 H          1 <1>        0.000
     13 H3         -5.2331  -44.3736   33.1241 H          1 <1>        0.000
     14 H5         -5.8419  -42.6610   31.4959 H          1 <1>        0.000
     15 H6         -6.7541  -41.8368   32.7911 H          1 <1>        0.000
     16 H1         -4.7470  -42.9190   33.6620 H          1 <1>        0.000
     17 C1        -11.2940  -43.7050   32.9280 C.3        1 <1>        0.030
     18 H1        -12.0485  -44.4366   32.6032 H          1 <1>        0.000
     19 H2        -11.5820  -42.7020   32.5800 H          1 <1>        0.000
     20 H3        -11.2300  -43.7080   34.0261 H          1 <1>        0.000
     21 C1        -11.0620  -46.0530   31.2420 C.3        1 <1>        0.000
     22 H2        -10.7659  -46.9273   30.6438 H          1 <1>        0.000
     23 H3        -11.5078  -46.3898   32.1895 H          1 <1>        0.000
     24 C1        -10.4980  -43.1000   28.0470 C.2        1 <1>        0.070
     25 N2        -11.6410  -42.5370   27.5630 N.am       1 <1>        0.080
     26 C3        -12.8700  -42.8590   28.0280 C.2        1 <1>        0.070
     27 C2        -12.8730  -43.8600   29.0920 C.2        1 <1>        0.070
     28 C3        -11.7440  -44.4040   29.5570 C.2        1 <1>        0.060
     29 N6        -10.5560  -44.0290   29.0400 N.am       1 <1>        0.060
     30 N3        -12.0320  -45.2670   30.5040 N.pl3      1 <1>        0.350
     31 C5        -13.3200  -45.3090   30.6770 C.2        1 <1>        0.060
     32 N4        -13.8790  -44.5100   29.8830 N.2        1 <1>        0.080
     33 O10       -13.9160  -42.3790   27.6210 O.2        1 <1>        0.030
     34 O11        -9.4150  -42.7700   27.5890 O.2        1 <1>        0.070
     35 H1        -11.5750  -41.8569   26.8329 H          1 <1>        0.000
     36 H2         -9.7188  -44.4431   29.3971 H          1 <1>        0.000
     37 C1        -14.0460  -46.1730   31.6680 C.3        1 <1>       -0.060
     38 H2        -14.8476  -46.7248   31.1552 H          1 <1>        0.000
     39 O3        -14.6120  -45.3510   32.6920 O.3        1 <1>        0.680
     40 H5        -13.3401  -46.8859   32.1190 H          1 <1>        0.000
     41 H6        -13.9257  -44.8708   33.1402 H          1 <1>        0.000
@<TRIPOS>BOND
     1    3    2 ar 
     2    3    4 ar 
     3    2    6 ar 
     4    4    1 ar 
     5    6    5 ar 
     6    1    5 ar 
     7    2    7 1  
     8    3    8 1  
     9    5    9 1  
    10   10   11 1  
    11   10   12 1  
    12   10   13 1  
    13   11   14 1  
    14   11   15 1  
    15   10   16 1  
    16    6   11 1  
    17   17   18 1  
    18   17   19 1  
    19   17   20 1  
    20    1   17 1  
    21   21   22 1  
    22   21   23 1  
    23    4   21 1  
    24   24   25 am 
    25   24   29 am 
    26   29   28 am 
    27   26   33 2  
    28   28   27 2  
    29   28   30 1  
    30   30   31 1  
    31   24   34 2  
    32   31   32 2  
    33   25   35 1  
    34   32   27 1  
    35   27   26 1  
    36   26   25 am 
    37   29   36 1  
    38   21   30 1  
    39   37   38 1  
    40   37   39 1  
    41   37   40 1  
    42   39   41 1  
    43   31   37 1  
# Name:          No_5_98
# Creation time: Thu Mar 21 10:15:01 2024


@<TRIPOS>MOLECULE
000004_000002
   41    43     1     1     1
SMALL
USER_CHARGES


@<TRIPOS>ATOM
      1 C17        -9.9380  -44.0780   32.3390 C.ar       1 <1>        0.190
      2 C20        -7.4650  -44.7920   31.3410 C.ar       1 <1>        0.110
      3 C21        -8.5840  -45.5640   31.0680 C.ar       1 <1>        0.230
      4 C16        -9.8330  -45.1980   31.5350 C.ar       1 <1>        0.170
      5 C18        -8.8360  -43.2880   32.6200 C.ar       1 <1>        0.210
      6 C19        -7.6280  -43.6740   32.1130 C.ar       1 <1>        0.060
      7 H          -6.4902  -45.0660   30.9541 H          1 <1>        0.000
      8 H          -8.4780  -46.4683   30.4798 H          1 <1>        0.000
      9 H          -8.9290  -42.3920   33.2230 H          1 <1>        0.000
     10 N1         -5.5590  -43.4750   33.4440 N.4        1 <1>        1.020
     11 C1         -6.4070  -42.8150   32.4270 C.3        1 <1>        0.060
     12 H2         -6.0642  -43.6241   34.3034 H          1 <1>        0.000
     13 H3         -5.2331  -44.3736   33.1241 H          1 <1>        0.000
     14 H5         -5.8419  -42.6610   31.4959 H          1 <1>        0.000
     15 H6         -6.7541  -41.8368   32.7911 H          1 <1>        0.000
     16 H1         -4.7470  -42.9190   33.6620 H          1 <1>        0.000
     17 C1        -11.2940  -43.7050   32.9280 C.3        1 <1>        0.030
     18 H1        -12.0485  -44.4366   32.6032 H          1 <1>        0.000
     19 H2        -11.5820  -42.7020   32.5800 H          1 <1>        0.000
     20 H3        -11.2300  -43.7080   34.0261 H          1 <1>        0.000
     21 C1        -11.0620  -46.0530   31.2420 C.3        1 <1>        0.000
     22 H2        -10.7659  -46.9273   30.6438 H          1 <1>        0.000
     23 H3        -11.5078  -46.3898   32.1895 H          1 <1>        0.000
     24 C1        -10.4980  -43.1000   28.0470 C.2        1 <1>        0.070
     25 N2        -11.6410  -42.5370   27.5630 N.am       1 <1>        0.080
     26 C3        -12.8700  -42.8590   28.0280 C.2        1 <1>        0.070
     27 C2        -12.8730  -43.8600   29.0920 C.2        1 <1>        0.070
     28 C3        -11.7440  -44.4040   29.5570 C.2        1 <1>        0.060
     29 N6        -10.5560  -44.0290   29.0400 N.am       1 <1>        0.060
     30 N3        -12.0320  -45.2670   30.5040 N.pl3      1 <1>        0.350
     31 C5        -13.3200  -45.3090   30.6770 C.2        1 <1>        0.060
     32 N4        -13.8790  -44.5100   29.8830 N.2        1 <1>        0.080
     33 O10       -13.9160  -42.3790   27.6210 O.2        1 <1>        0.030
     34 O11        -9.4150  -42.7700   27.5890 O.2        1 <1>        0.070
     35 H1        -11.5750  -41.8569   26.8329 H          1 <1>        0.000
     36 H2         -9.7188  -44.4431   29.3971 H          1 <1>        0.000
     37 C1        -14.0460  -46.1730   31.6680 C.3        1 <1>       -0.060
     38 H2        -14.5702  -46.9804   31.1357 H          1 <1>        0.000
     39 O3        -14.9950  -45.3810   32.3860 O.3        1 <1>        0.560
     40 H5        -13.3231  -46.6079   32.3739 H          1 <1>        0.000
     41 H6        -14.5511  -44.6802   32.8489 H          1 <1>        0.000
@<TRIPOS>BOND
     1    3    2 ar 
     2    3    4 ar 
     3    2    6 ar 
     4    4    1 ar 
     5    6    5 ar 
     6    1    5 ar 
     7    2    7 1  
     8    3    8 1  
     9    5    9 1  
    10   10   11 1  
    11   10   12 1  
    12   10   13 1  
    13   11   14 1  
    14   11   15 1  
    15   10   16 1  
    16    6   11 1  
    17   17   18 1  
    18   17   19 1  
    19   17   20 1  
    20    1   17 1  
    21   21   22 1  
    22   21   23 1  
    23    4   21 1  
    24   24   25 am 
    25   24   29 am 
    26   29   28 am 
    27   26   33 2  
    28   28   27 2  
    29   28   30 1  
    30   30   31 1  
    31   24   34 2  
    32   31   32 2  
    33   25   35 1  
    34   32   27 1  
    35   27   26 1  
    36   26   25 am 
    37   29   36 1  
    38   21   30 1  
    39   37   38 1  
    40   37   39 1  
    41   37   40 1  
    42   39   41 1  
    43   31   37 1  
# Name:          No_7_136
# Creation time: Thu Mar 21 10:15:01 2024


@<TRIPOS>MOLECULE
000005_000001
   42    43     1     1     1
SMALL
USER_CHARGES


@<TRIPOS>ATOM
      1 C17        -9.9380  -44.0780   32.3390 C.ar       1 <1>        0.190
      2 C20        -7.4650  -44.7920   31.3410 C.ar       1 <1>        0.110
      3 C21        -8.5840  -45.5640   31.0680 C.ar       1 <1>        0.230
      4 C16        -9.8330  -45.1980   31.5350 C.ar       1 <1>        0.170
      5 C18        -8.8360  -43.2880   32.6200 C.ar       1 <1>        0.210
      6 C19        -7.6280  -43.6740   32.1130 C.ar       1 <1>        0.060
      7 H          -6.4902  -45.0660   30.9541 H          1 <1>        0.000
      8 H          -8.4780  -46.4683   30.4798 H          1 <1>        0.000
      9 H          -8.9290  -42.3920   33.2230 H          1 <1>        0.000
     10 N1         -5.5590  -43.4750   33.4440 N.4        1 <1>        1.020
     11 C1         -6.4070  -42.8150   32.4270 C.3        1 <1>        0.060
     12 H2         -6.0642  -43.6241   34.3034 H          1 <1>        0.000
     13 H3         -5.2331  -44.3736   33.1241 H          1 <1>        0.000
     14 H5         -5.8419  -42.6610   31.4959 H          1 <1>        0.000
     15 H6         -6.7541  -41.8368   32.7911 H          1 <1>        0.000
     16 H1         -4.7470  -42.9190   33.6620 H          1 <1>        0.000
     17 C1        -11.2940  -43.7050   32.9280 C.3        1 <1>        0.030
     18 H1        -12.0485  -44.4366   32.6032 H          1 <1>        0.000
     19 H2        -11.5820  -42.7020   32.5800 H          1 <1>        0.000
     20 H3        -11.2300  -43.7080   34.0261 H          1 <1>        0.000
     21 C1        -11.0620  -46.0530   31.2420 C.3        1 <1>        0.000
     22 H2        -10.7659  -46.9273   30.6438 H          1 <1>        0.000
     23 H3        -11.5078  -46.3898   32.1895 H          1 <1>        0.000
     24 C1        -12.0920  -45.2190   30.4580 C.3        1 <1>        0.010
     25 H1        -11.6962  -44.2055   30.2961 H          1 <1>        0.000
     26 H2        -13.0286  -45.1590   31.0318 H          1 <1>        0.000
     27 C1        -12.4520  -45.1000   28.0580 C.2        1 <1>        0.100
     28 O1        -12.6680  -45.5810   26.9570 O.2        1 <1>        0.120
     29 N1        -12.3490  -45.8480   29.1780 N.am       1 <1>        0.040
     30 H3        -12.4501  -46.8417   29.1300 H          1 <1>        0.000
     31 O1        -11.5770  -41.6770   28.3210 O.3        1 <1>        0.080
     32 N1        -11.2070  -43.0390   28.3360 N.2        1 <1>        0.190
     33 C1        -12.3040  -43.6400   28.1330 C.2        1 <1>        0.070
     34 C2        -13.3910  -42.6830   27.9840 C.2        1 <1>       -0.020
     35 N2        -12.9590  -41.4970   28.0960 N.2        1 <1>        0.520
     36 N1        -15.4530  -43.5620   28.9680 N.4        1 <1>        0.520
     37 C1        -14.8260  -43.0450   27.7320 C.3        1 <1>        0.040
     38 H2        -14.9789  -44.3852   29.3051 H          1 <1>        0.000
     39 H3        -15.4300  -42.8764   29.7066 H          1 <1>        0.000
     40 H5        -15.3548  -42.1473   27.3791 H          1 <1>        0.000
     41 H6        -14.8600  -43.8042   26.9368 H          1 <1>        0.000
     42 H1        -16.4182  -43.8091   28.8150 H          1 <1>        0.000
@<TRIPOS>BOND
     1    3    2 ar 
     2    3    4 ar 
     3    2    6 ar 
     4    4    1 ar 
     5    6    5 ar 
     6    1    5 ar 
     7    2    7 1  
     8    3    8 1  
     9    5    9 1  
    10   10   11 1  
    11   10   12 1  
    12   10   13 1  
    13   11   14 1  
    14   11   15 1  
    15   10   16 1  
    16    6   11 1  
    17   17   18 1  
    18   17   19 1  
    19   17   20 1  
    20    1   17 1  
    21   21   22 1  
    22   21   23 1  
    23    4   21 1  
    24   24   25 1  
    25   24   26 1  
    26   21   24 1  
    27   27   28 2  
    28   27   29 am 
    29   29   30 1  
    30   24   29 1  
    31   31   32 1  
    32   31   35 1  
    33   32   33 2  
    34   33   34 1  
    35   34   35 2  
    36   27   33 1  
    37   36   37 1  
    38   36   38 1  
    39   36   39 1  
    40   37   40 1  
    41   37   41 1  
    42   36   42 1  
    43   34   37 1  
# Name:          No_7_137
# Creation time: Thu Mar 21 10:15:01 2024


@<TRIPOS>MOLECULE
000005_000002
   42    43     1     1     1
SMALL
USER_CHARGES


@<TRIPOS>ATOM
      1 C17        -9.9380  -44.0780   32.3390 C.ar       1 <1>        0.190
      2 C20        -7.4650  -44.7920   31.3410 C.ar       1 <1>        0.110
      3 C21        -8.5840  -45.5640   31.0680 C.ar       1 <1>        0.230
      4 C16        -9.8330  -45.1980   31.5350 C.ar       1 <1>        0.170
      5 C18        -8.8360  -43.2880   32.6200 C.ar       1 <1>        0.210
      6 C19        -7.6280  -43.6740   32.1130 C.ar       1 <1>        0.060
      7 H          -6.4902  -45.0660   30.9541 H          1 <1>        0.000
      8 H          -8.4780  -46.4683   30.4798 H          1 <1>        0.000
      9 H          -8.9290  -42.3920   33.2230 H          1 <1>        0.000
     10 N1         -5.5590  -43.4750   33.4440 N.4        1 <1>        1.020
     11 C1         -6.4070  -42.8150   32.4270 C.3        1 <1>        0.060
     12 H2         -6.0642  -43.6241   34.3034 H          1 <1>        0.000
     13 H3         -5.2331  -44.3736   33.1241 H          1 <1>        0.000
     14 H5         -5.8419  -42.6610   31.4959 H          1 <1>        0.000
     15 H6         -6.7541  -41.8368   32.7911 H          1 <1>        0.000
     16 H1         -4.7470  -42.9190   33.6620 H          1 <1>        0.000
     17 C1        -11.2940  -43.7050   32.9280 C.3        1 <1>        0.030
     18 H1        -12.0485  -44.4366   32.6032 H          1 <1>        0.000
     19 H2        -11.5820  -42.7020   32.5800 H          1 <1>        0.000
     20 H3        -11.2300  -43.7080   34.0261 H          1 <1>        0.000
     21 C1        -11.0620  -46.0530   31.2420 C.3        1 <1>        0.000
     22 H2        -10.7659  -46.9273   30.6438 H          1 <1>        0.000
     23 H3        -11.5078  -46.3898   32.1895 H          1 <1>        0.000
     24 C1        -12.0920  -45.2190   30.4580 C.3        1 <1>        0.010
     25 H1        -11.6962  -44.2055   30.2961 H          1 <1>        0.000
     26 H2        -13.0286  -45.1590   31.0318 H          1 <1>        0.000
     27 C1        -12.4520  -45.1000   28.0580 C.2        1 <1>        0.100
     28 O1        -12.6680  -45.5810   26.9570 O.2        1 <1>        0.120
     29 N1        -12.3490  -45.8480   29.1780 N.am       1 <1>        0.040
     30 H3        -12.4501  -46.8417   29.1300 H          1 <1>        0.000
     31 O1        -11.5770  -41.6770   28.3210 O.3        1 <1>        0.080
     32 N1        -11.2070  -43.0390   28.3360 N.2        1 <1>        0.190
     33 C1        -12.3040  -43.6400   28.1330 C.2        1 <1>        0.070
     34 C2        -13.3910  -42.6830   27.9840 C.2        1 <1>       -0.020
     35 N2        -12.9590  -41.4970   28.0960 N.2        1 <1>        0.520
     36 N1        -15.5480  -43.2150   29.0120 N.4        1 <1>        0.540
     37 C1        -14.8260  -43.0450   27.7320 C.3        1 <1>        0.040
     38 H2        -15.1360  -43.9449   29.5720 H          1 <1>        0.000
     39 H3        -15.5320  -42.3683   29.5588 H          1 <1>        0.000
     40 H5        -15.2870  -42.2450   27.1340 H          1 <1>        0.000
     41 H6        -14.8530  -43.9768   27.1481 H          1 <1>        0.000
     42 H1        -16.5140  -43.4590   28.8590 H          1 <1>        0.000
@<TRIPOS>BOND
     1    3    2 ar 
     2    3    4 ar 
     3    2    6 ar 
     4    4    1 ar 
     5    6    5 ar 
     6    1    5 ar 
     7    2    7 1  
     8    3    8 1  
     9    5    9 1  
    10   10   11 1  
    11   10   12 1  
    12   10   13 1  
    13   11   14 1  
    14   11   15 1  
    15   10   16 1  
    16    6   11 1  
    17   17   18 1  
    18   17   19 1  
    19   17   20 1  
    20    1   17 1  
    21   21   22 1  
    22   21   23 1  
    23    4   21 1  
    24   24   25 1  
    25   24   26 1  
    26   21   24 1  
    27   27   28 2  
    28   27   29 am 
    29   29   30 1  
    30   24   29 1  
    31   31   32 1  
    32   31   35 1  
    33   32   33 2  
    34   33   34 1  
    35   34   35 2  
    36   27   33 1  
    37   36   37 1  
    38   36   38 1  
    39   36   39 1  
    40   37   40 1  
    41   37   41 1  
    42   36   42 1  
    43   34   37 1  

# Name:          No_6_105
# Creation time: Thu Mar 21 10:22:29 2024


@<TRIPOS>MOLECULE
000001_000001
   49    51     1     1     1
SMALL
USER_CHARGES


@<TRIPOS>ATOM
      1 C17        -9.9380  -44.0780   32.3390 C.ar       1 <1>        0.210
      2 C20        -7.4650  -44.7920   31.3410 C.ar       1 <1>        0.110
      3 C21        -8.5840  -45.5640   31.0680 C.ar       1 <1>        0.230
      4 C16        -9.8330  -45.1980   31.5350 C.ar       1 <1>        0.170
      5 C18        -8.8360  -43.2880   32.6200 C.ar       1 <1>        0.160
      6 C19        -7.6280  -43.6740   32.1130 C.ar       1 <1>        0.100
      7 H         -10.9020  -43.8130   32.7580 H          1 <1>        0.000
      8 H          -6.4902  -45.0660   30.9541 H          1 <1>        0.000
      9 H          -8.4780  -46.4683   30.4798 H          1 <1>        0.000
     10 O1         -6.5150  -42.8910   32.3990 O.3        1 <1>        0.560
     11 H2         -5.8408  -43.2141   31.8128 H          1 <1>        0.000
     12 C1        -11.0620  -46.0530   31.2420 C.3        1 <1>        0.000
     13 H1        -10.7659  -46.9273   30.6438 H          1 <1>        0.000
     14 H2        -11.5078  -46.3898   32.1895 H          1 <1>        0.000
     15 C1         -8.9670  -42.0280   33.4680 C.3        1 <1>        0.030
     16 N2         -8.4250  -42.2570   34.8300 N.4        1 <1>        0.420
     17 C3         -8.5250  -41.0620   35.7040 C.3        1 <1>        0.100
     18 H1         -8.9113  -43.0285   35.2593 H          1 <1>        0.000
     19 H6        -10.0316  -41.7551   33.5140 H          1 <1>        0.000
     20 H7         -8.4219  -41.2169   32.9630 H          1 <1>        0.000
     21 H8         -8.1130  -41.2770   36.7010 H          1 <1>        0.000
     22 H9         -9.5746  -40.7561   35.8260 H          1 <1>        0.000
     23 H10        -7.9643  -40.2184   35.2752 H          1 <1>        0.000
     24 H2         -7.4610  -42.5440   34.7630 H          1 <1>        0.000
     25 N1        -13.0180  -43.9630   27.1270 N.pl3      1 <1>        0.270
     26 C1        -14.0960  -43.2300   27.0430 C.2        1 <1>        0.090
     27 N2        -14.6460  -43.0840   28.1790 N.2        1 <1>        0.050
     28 C2        -14.1280  -43.8760   30.4900 C.ar       1 <1>        0.150
     29 C3        -13.1610  -44.6430   31.1550 C.ar       1 <1>        0.200
     30 C4        -12.0820  -45.2270   30.4660 C.ar       1 <1>        0.150
     31 C5        -11.9190  -45.0700   29.0820 C.ar       1 <1>        0.200
     32 C6        -12.8840  -44.3040   28.4300 C.ar       1 <1>        0.080
     33 C7        -13.9430  -43.7330   29.1170 C.ar       1 <1>        0.070
     34 H1        -12.3919  -44.2300   26.3539 H          1 <1>        0.000
     35 H2        -14.4829  -42.7941   26.1231 H          1 <1>        0.000
     36 H4        -13.2480  -44.7891   32.2256 H          1 <1>        0.000
     37 H6        -11.0909  -45.5170   28.5440 H          1 <1>        0.000
     38 C         -14.7960  -42.3400   32.3110 C.2        1 <1>       -0.000
     39 O         -14.3170  -41.2500   32.0410 O.2        1 <1>        0.520
     40 C3        -15.3070  -43.2360   31.2150 C.3        1 <1>       -0.060
     41 H3        -15.9435  -44.0307   31.6313 H          1 <1>        0.000
     42 H4        -15.8966  -42.6514   30.4935 H          1 <1>        0.000
     43 N1        -14.6060  -41.6230   34.6440 N.4        1 <1>        0.580
     44 C1        -14.8420  -42.7750   33.7470 C.3        1 <1>        0.070
     45 H2        -13.7049  -41.2040   34.4750 H          1 <1>        0.000
     46 H3        -15.3027  -40.9063   34.5140 H          1 <1>        0.000
     47 H5        -15.8286  -43.2198   33.9439 H          1 <1>        0.000
     48 H6        -14.0739  -43.5471   33.9020 H          1 <1>        0.000
     49 H1        -14.6340  -41.8999   35.6128 H          1 <1>        0.000
@<TRIPOS>BOND
     1    3    2 ar 
     2    3    4 ar 
     3    2    6 ar 
     4    4    1 ar 
     5    6    5 ar 
     6    1    5 ar 
     7    1    7 1  
     8    2    8 1  
     9    3    9 1  
    10   10   11 1  
    11    6   10 1  
    12   12   13 1  
    13   12   14 1  
    14    4   12 1  
    15   16   15 1  
    16   16   17 1  
    17   16   18 1  
    18   15   19 1  
    19   15   20 1  
    20   17   21 1  
    21   17   22 1  
    22   17   23 1  
    23   16   24 1  
    24    5   15 1  
    25   26   25 1  
    26   25   32 1  
    27   27   26 2  
    28   33   27 1  
    29   28   29 ar 
    30   28   33 ar 
    31   29   30 ar 
    32   30   31 ar 
    33   31   32 ar 
    34   32   33 ar 
    35   25   34 1  
    36   26   35 1  
    37   29   36 1  
    38   31   37 1  
    39   12   30 1  
    40   38   39 2  
    41   38   40 1  
    42   40   41 1  
    43   40   42 1  
    44   28   40 1  
    45   43   44 1  
    46   43   45 1  
    47   43   46 1  
    48   44   47 1  
    49   44   48 1  
    50   43   49 1  
    51   38   44 1  
# Name:          No_7_3
# Creation time: Thu Mar 21 10:22:29 2024


@<TRIPOS>MOLECULE
000001_000002
   49    51     1     1     1
SMALL
USER_CHARGES


@<TRIPOS>ATOM
      1 C17        -9.9380  -44.0780   32.3390 C.ar       1 <1>        0.210
      2 C20        -7.4650  -44.7920   31.3410 C.ar       1 <1>        0.110
      3 C21        -8.5840  -45.5640   31.0680 C.ar       1 <1>        0.230
      4 C16        -9.8330  -45.1980   31.5350 C.ar       1 <1>        0.170
      5 C18        -8.8360  -43.2880   32.6200 C.ar       1 <1>        0.160
      6 C19        -7.6280  -43.6740   32.1130 C.ar       1 <1>        0.100
      7 H         -10.9020  -43.8130   32.7580 H          1 <1>        0.000
      8 H          -6.4902  -45.0660   30.9541 H          1 <1>        0.000
      9 H          -8.4780  -46.4683   30.4798 H          1 <1>        0.000
     10 O1         -6.5150  -42.8910   32.3990 O.3        1 <1>        0.560
     11 H2         -5.8408  -43.2141   31.8128 H          1 <1>        0.000
     12 C1        -11.0620  -46.0530   31.2420 C.3        1 <1>        0.000
     13 H1        -10.7659  -46.9273   30.6438 H          1 <1>        0.000
     14 H2        -11.5078  -46.3898   32.1895 H          1 <1>        0.000
     15 C1         -8.9670  -42.0280   33.4680 C.3        1 <1>        0.030
     16 N2         -8.4250  -42.2570   34.8300 N.4        1 <1>        0.420
     17 C3         -8.5250  -41.0620   35.7040 C.3        1 <1>        0.100
     18 H1         -8.9113  -43.0285   35.2593 H          1 <1>        0.000
     19 H6        -10.0316  -41.7551   33.5140 H          1 <1>        0.000
     20 H7         -8.4219  -41.2169   32.9630 H          1 <1>        0.000
     21 H8         -8.1130  -41.2770   36.7010 H          1 <1>        0.000
     22 H9         -9.5746  -40.7561   35.8260 H          1 <1>        0.000
     23 H10        -7.9643  -40.2184   35.2752 H          1 <1>        0.000
     24 H2         -7.4610  -42.5440   34.7630 H          1 <1>        0.000
     25 N1        -13.0180  -43.9630   27.1270 N.pl3      1 <1>        0.270
     26 C1        -14.0960  -43.2300   27.0430 C.2        1 <1>        0.090
     27 N2        -14.6460  -43.0840   28.1790 N.2        1 <1>        0.050
     28 C2        -14.1280  -43.8760   30.4900 C.ar       1 <1>        0.150
     29 C3        -13.1610  -44.6430   31.1550 C.ar       1 <1>        0.200
     30 C4        -12.0820  -45.2270   30.4660 C.ar       1 <1>        0.150
     31 C5        -11.9190  -45.0700   29.0820 C.ar       1 <1>        0.200
     32 C6        -12.8840  -44.3040   28.4300 C.ar       1 <1>        0.080
     33 C7        -13.9430  -43.7330   29.1170 C.ar       1 <1>        0.070
     34 H1        -12.3919  -44.2300   26.3539 H          1 <1>        0.000
     35 H2        -14.4829  -42.7941   26.1231 H          1 <1>        0.000
     36 H4        -13.2480  -44.7891   32.2256 H          1 <1>        0.000
     37 H6        -11.0909  -45.5170   28.5440 H          1 <1>        0.000
     38 C         -14.7960  -42.3400   32.3110 C.2        1 <1>       -0.000
     39 O         -14.3170  -41.2500   32.0410 O.2        1 <1>        0.520
     40 C3        -15.3070  -43.2360   31.2150 C.3        1 <1>       -0.060
     41 H3        -15.9435  -44.0307   31.6313 H          1 <1>        0.000
     42 H4        -15.8966  -42.6514   30.4935 H          1 <1>        0.000
     43 N1        -14.6060  -41.6230   34.6440 N.4        1 <1>        0.580
     44 C1        -14.8420  -42.7750   33.7470 C.3        1 <1>        0.070
     45 H2        -13.7049  -41.2040   34.4750 H          1 <1>        0.000
     46 H3        -15.3027  -40.9063   34.5140 H          1 <1>        0.000
     47 H5        -15.8286  -43.2198   33.9439 H          1 <1>        0.000
     48 H6        -14.0739  -43.5471   33.9020 H          1 <1>        0.000
     49 H1        -14.6340  -41.8999   35.6128 H          1 <1>        0.000
@<TRIPOS>BOND
     1    3    2 ar 
     2    3    4 ar 
     3    2    6 ar 
     4    4    1 ar 
     5    6    5 ar 
     6    1    5 ar 
     7    1    7 1  
     8    2    8 1  
     9    3    9 1  
    10   10   11 1  
    11    6   10 1  
    12   12   13 1  
    13   12   14 1  
    14    4   12 1  
    15   16   15 1  
    16   16   17 1  
    17   16   18 1  
    18   15   19 1  
    19   15   20 1  
    20   17   21 1  
    21   17   22 1  
    22   17   23 1  
    23   16   24 1  
    24    5   15 1  
    25   26   25 1  
    26   25   32 1  
    27   27   26 2  
    28   33   27 1  
    29   28   29 ar 
    30   28   33 ar 
    31   29   30 ar 
    32   30   31 ar 
    33   31   32 ar 
    34   32   33 ar 
    35   25   34 1  
    36   26   35 1  
    37   29   36 1  
    38   31   37 1  
    39   12   30 1  
    40   38   39 2  
    41   38   40 1  
    42   40   41 1  
    43   40   42 1  
    44   28   40 1  
    45   43   44 1  
    46   43   45 1  
    47   43   46 1  
    48   44   47 1  
    49   44   48 1  
    50   43   49 1  
    51   38   44 1  
# Name:          No_6_104
# Creation time: Thu Mar 21 10:22:29 2024


@<TRIPOS>MOLECULE
000001_000003
   49    51     1     1     1
SMALL
USER_CHARGES


@<TRIPOS>ATOM
      1 C17        -9.9380  -44.0780   32.3390 C.ar       1 <1>        0.210
      2 C20        -7.4650  -44.7920   31.3410 C.ar       1 <1>        0.110
      3 C21        -8.5840  -45.5640   31.0680 C.ar       1 <1>        0.230
      4 C16        -9.8330  -45.1980   31.5350 C.ar       1 <1>        0.170
      5 C18        -8.8360  -43.2880   32.6200 C.ar       1 <1>        0.160
      6 C19        -7.6280  -43.6740   32.1130 C.ar       1 <1>        0.100
      7 H         -10.9020  -43.8130   32.7580 H          1 <1>        0.000
      8 H          -6.4902  -45.0660   30.9541 H          1 <1>        0.000
      9 H          -8.4780  -46.4683   30.4798 H          1 <1>        0.000
     10 O1         -6.5150  -42.8910   32.3990 O.3        1 <1>        0.560
     11 H2         -5.8408  -43.2141   31.8128 H          1 <1>        0.000
     12 C1        -11.0620  -46.0530   31.2420 C.3        1 <1>        0.000
     13 H1        -10.7659  -46.9273   30.6438 H          1 <1>        0.000
     14 H2        -11.5078  -46.3898   32.1895 H          1 <1>        0.000
     15 C1         -8.9670  -42.0280   33.4680 C.3        1 <1>        0.030
     16 N2         -8.4250  -42.2570   34.8300 N.4        1 <1>        0.420
     17 C3         -8.5250  -41.0620   35.7040 C.3        1 <1>        0.100
     18 H1         -8.9113  -43.0285   35.2593 H          1 <1>        0.000
     19 H6        -10.0316  -41.7551   33.5140 H          1 <1>        0.000
     20 H7         -8.4219  -41.2169   32.9630 H          1 <1>        0.000
     21 H8         -8.1130  -41.2770   36.7010 H          1 <1>        0.000
     22 H9         -9.5746  -40.7561   35.8260 H          1 <1>        0.000
     23 H10        -7.9643  -40.2184   35.2752 H          1 <1>        0.000
     24 H2         -7.4610  -42.5440   34.7630 H          1 <1>        0.000
     25 N1        -13.0180  -43.9630   27.1270 N.pl3      1 <1>        0.270
     26 C1        -14.0960  -43.2300   27.0430 C.2        1 <1>        0.090
     27 N2        -14.6460  -43.0840   28.1790 N.2        1 <1>        0.050
     28 C2        -14.1280  -43.8760   30.4900 C.ar       1 <1>        0.150
     29 C3        -13.1610  -44.6430   31.1550 C.ar       1 <1>        0.200
     30 C4        -12.0820  -45.2270   30.4660 C.ar       1 <1>        0.150
     31 C5        -11.9190  -45.0700   29.0820 C.ar       1 <1>        0.200
     32 C6        -12.8840  -44.3040   28.4300 C.ar       1 <1>        0.080
     33 C7        -13.9430  -43.7330   29.1170 C.ar       1 <1>        0.070
     34 H1        -12.3919  -44.2300   26.3539 H          1 <1>        0.000
     35 H2        -14.4829  -42.7941   26.1231 H          1 <1>        0.000
     36 H4        -13.2480  -44.7891   32.2256 H          1 <1>        0.000
     37 H6        -11.0909  -45.5170   28.5440 H          1 <1>        0.000
     38 C         -14.7960  -42.3400   32.3110 C.2        1 <1>       -0.000
     39 O         -14.3170  -41.2500   32.0410 O.2        1 <1>        0.520
     40 C3        -15.3070  -43.2360   31.2150 C.3        1 <1>       -0.060
     41 H3        -15.9435  -44.0307   31.6313 H          1 <1>        0.000
     42 H4        -15.8966  -42.6514   30.4935 H          1 <1>        0.000
     43 N1        -14.2620  -41.7330   34.6220 N.4        1 <1>        0.410
     44 C1        -14.8420  -42.7750   33.7470 C.3        1 <1>        0.070
     45 H2        -13.3003  -41.5471   34.3841 H          1 <1>        0.000
     46 H3        -14.7669  -40.8641   34.5440 H          1 <1>        0.000
     47 H5        -15.8906  -42.9659   34.0189 H          1 <1>        0.000
     48 H6        -14.2802  -43.7157   33.8440 H          1 <1>        0.000
     49 H1        -14.2860  -42.0109   35.5906 H          1 <1>        0.000
@<TRIPOS>BOND
     1    3    2 ar 
     2    3    4 ar 
     3    2    6 ar 
     4    4    1 ar 
     5    6    5 ar 
     6    1    5 ar 
     7    1    7 1  
     8    2    8 1  
     9    3    9 1  
    10   10   11 1  
    11    6   10 1  
    12   12   13 1  
    13   12   14 1  
    14    4   12 1  
    15   16   15 1  
    16   16   17 1  
    17   16   18 1  
    18   15   19 1  
    19   15   20 1  
    20   17   21 1  
    21   17   22 1  
    22   17   23 1  
    23   16   24 1  
    24    5   15 1  
    25   26   25 1  
    26   25   32 1  
    27   27   26 2  
    28   33   27 1  
    29   28   29 ar 
    30   28   33 ar 
    31   29   30 ar 
    32   30   31 ar 
    33   31   32 ar 
    34   32   33 ar 
    35   25   34 1  
    36   26   35 1  
    37   29   36 1  
    38   31   37 1  
    39   12   30 1  
    40   38   39 2  
    41   38   40 1  
    42   40   41 1  
    43   40   42 1  
    44   28   40 1  
    45   43   44 1  
    46   43   45 1  
    47   43   46 1  
    48   44   47 1  
    49   44   48 1  
    50   43   49 1  
    51   38   44 1  
# Name:          No_7_10
# Creation time: Thu Mar 21 10:22:29 2024


@<TRIPOS>MOLECULE
000001_000004
   49    51     1     1     1
SMALL
USER_CHARGES


@<TRIPOS>ATOM
      1 C17        -9.9380  -44.0780   32.3390 C.ar       1 <1>        0.210
      2 C20        -7.4650  -44.7920   31.3410 C.ar       1 <1>        0.110
      3 C21        -8.5840  -45.5640   31.0680 C.ar       1 <1>        0.230
      4 C16        -9.8330  -45.1980   31.5350 C.ar       1 <1>        0.170
      5 C18        -8.8360  -43.2880   32.6200 C.ar       1 <1>        0.160
      6 C19        -7.6280  -43.6740   32.1130 C.ar       1 <1>        0.100
      7 H         -10.9020  -43.8130   32.7580 H          1 <1>        0.000
      8 H          -6.4902  -45.0660   30.9541 H          1 <1>        0.000
      9 H          -8.4780  -46.4683   30.4798 H          1 <1>        0.000
     10 O1         -6.5150  -42.8910   32.3990 O.3        1 <1>        0.560
     11 H2         -5.8408  -43.2141   31.8128 H          1 <1>        0.000
     12 C1        -11.0620  -46.0530   31.2420 C.3        1 <1>        0.000
     13 H1        -10.7659  -46.9273   30.6438 H          1 <1>        0.000
     14 H2        -11.5078  -46.3898   32.1895 H          1 <1>        0.000
     15 C1         -8.9670  -42.0280   33.4680 C.3        1 <1>        0.030
     16 N2         -8.4250  -42.2570   34.8300 N.4        1 <1>        0.420
     17 C3         -8.5250  -41.0620   35.7040 C.3        1 <1>        0.100
     18 H1         -8.9113  -43.0285   35.2593 H          1 <1>        0.000
     19 H6        -10.0316  -41.7551   33.5140 H          1 <1>        0.000
     20 H7         -8.4219  -41.2169   32.9630 H          1 <1>        0.000
     21 H8         -8.1130  -41.2770   36.7010 H          1 <1>        0.000
     22 H9         -9.5746  -40.7561   35.8260 H          1 <1>        0.000
     23 H10        -7.9643  -40.2184   35.2752 H          1 <1>        0.000
     24 H2         -7.4610  -42.5440   34.7630 H          1 <1>        0.000
     25 N1        -13.0180  -43.9630   27.1270 N.pl3      1 <1>        0.270
     26 C1        -14.0960  -43.2300   27.0430 C.2        1 <1>        0.090
     27 N2        -14.6460  -43.0840   28.1790 N.2        1 <1>        0.050
     28 C2        -14.1280  -43.8760   30.4900 C.ar       1 <1>        0.150
     29 C3        -13.1610  -44.6430   31.1550 C.ar       1 <1>        0.200
     30 C4        -12.0820  -45.2270   30.4660 C.ar       1 <1>        0.150
     31 C5        -11.9190  -45.0700   29.0820 C.ar       1 <1>        0.200
     32 C6        -12.8840  -44.3040   28.4300 C.ar       1 <1>        0.080
     33 C7        -13.9430  -43.7330   29.1170 C.ar       1 <1>        0.070
     34 H1        -12.3919  -44.2300   26.3539 H          1 <1>        0.000
     35 H2        -14.4829  -42.7941   26.1231 H          1 <1>        0.000
     36 H4        -13.2480  -44.7891   32.2256 H          1 <1>        0.000
     37 H6        -11.0909  -45.5170   28.5440 H          1 <1>        0.000
     38 C         -14.7960  -42.3400   32.3110 C.2        1 <1>       -0.000
     39 O         -14.3170  -41.2500   32.0410 O.2        1 <1>        0.520
     40 C3        -15.3070  -43.2360   31.2150 C.3        1 <1>       -0.060
     41 H3        -15.9435  -44.0307   31.6313 H          1 <1>        0.000
     42 H4        -15.8966  -42.6514   30.4935 H          1 <1>        0.000
     43 N1        -14.2620  -41.7330   34.6220 N.4        1 <1>        0.410
     44 C1        -14.8420  -42.7750   33.7470 C.3        1 <1>        0.070
     45 H2        -13.3003  -41.5471   34.3841 H          1 <1>        0.000
     46 H3        -14.7669  -40.8641   34.5440 H          1 <1>        0.000
     47 H5        -15.8906  -42.9659   34.0189 H          1 <1>        0.000
     48 H6        -14.2802  -43.7157   33.8440 H          1 <1>        0.000
     49 H1        -14.2860  -42.0109   35.5906 H          1 <1>        0.000
@<TRIPOS>BOND
     1    3    2 ar 
     2    3    4 ar 
     3    2    6 ar 
     4    4    1 ar 
     5    6    5 ar 
     6    1    5 ar 
     7    1    7 1  
     8    2    8 1  
     9    3    9 1  
    10   10   11 1  
    11    6   10 1  
    12   12   13 1  
    13   12   14 1  
    14    4   12 1  
    15   16   15 1  
    16   16   17 1  
    17   16   18 1  
    18   15   19 1  
    19   15   20 1  
    20   17   21 1  
    21   17   22 1  
    22   17   23 1  
    23   16   24 1  
    24    5   15 1  
    25   26   25 1  
    26   25   32 1  
    27   27   26 2  
    28   33   27 1  
    29   28   29 ar 
    30   28   33 ar 
    31   29   30 ar 
    32   30   31 ar 
    33   31   32 ar 
    34   32   33 ar 
    35   25   34 1  
    36   26   35 1  
    37   29   36 1  
    38   31   37 1  
    39   12   30 1  
    40   38   39 2  
    41   38   40 1  
    42   40   41 1  
    43   40   42 1  
    44   28   40 1  
    45   43   44 1  
    46   43   45 1  
    47   43   46 1  
    48   44   47 1  
    49   44   48 1  
    50   43   49 1  
    51   38   44 1  
# Name:          No_7_1
# Creation time: Thu Mar 21 10:22:29 2024


@<TRIPOS>MOLECULE
000002_000001
   42    43     1     1     1
SMALL
USER_CHARGES


@<TRIPOS>ATOM
      1 C17        -9.9380  -44.0780   32.3390 C.ar       1 <1>        0.210
      2 C20        -7.4650  -44.7920   31.3410 C.ar       1 <1>        0.110
      3 C21        -8.5840  -45.5640   31.0680 C.ar       1 <1>        0.230
      4 C16        -9.8330  -45.1980   31.5350 C.ar       1 <1>        0.170
      5 C18        -8.8360  -43.2880   32.6200 C.ar       1 <1>        0.160
      6 C19        -7.6280  -43.6740   32.1130 C.ar       1 <1>        0.060
      7 H         -10.9020  -43.8130   32.7580 H          1 <1>        0.000
      8 H          -6.4902  -45.0660   30.9541 H          1 <1>        0.000
      9 H          -8.4780  -46.4683   30.4798 H          1 <1>        0.000
     10 C1        -11.0620  -46.0530   31.2420 C.3        1 <1>        0.000
     11 C2        -11.7040  -45.5900   29.9380 C.ar       1 <1>        0.160
     12 C3        -13.0230  -45.1270   29.9340 C.ar       1 <1>        0.210
     13 C4        -13.6110  -44.7030   28.7390 C.ar       1 <1>        0.210
     14 C5        -12.8800  -44.7430   27.5480 C.ar       1 <1>        0.220
     15 C6        -11.5610  -45.2070   27.5520 C.ar       1 <1>        0.190
     16 C7        -10.9730  -45.6300   28.7470 C.ar       1 <1>        0.230
     17 H1        -11.7852  -45.9480   32.0642 H          1 <1>        0.000
     18 H3        -10.7619  -47.1073   31.1500 H          1 <1>        0.000
     19 H4        -13.5890  -45.0960   30.8580 H          1 <1>        0.000
     20 H5        -14.6338  -44.3441   28.7360 H          1 <1>        0.000
     21 H6        -13.3369  -44.4151   26.6213 H          1 <1>        0.000
     22 H7        -10.9950  -45.2380   26.6280 H          1 <1>        0.000
     23 H8         -9.9505  -45.9898   28.7500 H          1 <1>        0.000
     24 C1         -6.4070  -42.8150   32.4270 C.3        1 <1>        0.060
     25 H2         -6.6600  -42.0939   33.2182 H          1 <1>        0.000
     26 O3         -6.0050  -42.1110   31.2500 O.3        1 <1>        0.820
     27 H5         -5.5839  -43.4601   32.7681 H          1 <1>        0.000
     28 H6         -5.7850  -42.7270   30.5610 H          1 <1>        0.000
     29 C1         -8.9670  -42.0280   33.4680 C.3        1 <1>        0.030
     30 N2         -8.6280  -42.3140   34.8840 N.4        1 <1>        0.360
     31 C3         -8.7380  -41.1220   35.7600 C.3        1 <1>        0.040
     32 H1         -9.2310  -43.0430   35.2320 H          1 <1>        0.000
     33 H6        -10.0008  -41.6621   33.3820 H          1 <1>        0.000
     34 H7         -8.2931  -41.2641   33.0530 H          1 <1>        0.000
     35 H8         -8.4782  -41.3798   36.7973 H          1 <1>        0.000
     36 H10        -8.0560  -40.3270   35.4240 H          1 <1>        0.000
     37 H2         -7.6918  -42.6841   34.9360 H          1 <1>        0.000
     38 C1        -10.1740  -40.5670   35.7490 C.3        1 <1>       -0.250
     39 O3        -11.0460  -41.5140   35.1250 O.3        1 <1>        0.560
     40 H4        -10.1980  -39.6218   35.1869 H          1 <1>        0.000
     41 H5        -10.5061  -40.3880   36.7823 H          1 <1>        0.000
     42 H6        -11.9349  -41.1790   35.1140 H          1 <1>        0.000
@<TRIPOS>BOND
     1    3    2 ar 
     2    3    4 ar 
     3    2    6 ar 
     4    4    1 ar 
     5    6    5 ar 
     6    1    5 ar 
     7    1    7 1  
     8    2    8 1  
     9    3    9 1  
    10   10   11 1  
    11   11   12 ar 
    12   11   16 ar 
    13   16   15 ar 
    14   15   14 ar 
    15   14   13 ar 
    16   13   12 ar 
    17   10   17 1  
    18   10   18 1  
    19   12   19 1  
    20   13   20 1  
    21   14   21 1  
    22   15   22 1  
    23   16   23 1  
    24    4   10 1  
    25   24   25 1  
    26   24   26 1  
    27   24   27 1  
    28   26   28 1  
    29    6   24 1  
    30   30   29 1  
    31   30   31 1  
    32   30   32 1  
    33   29   33 1  
    34   29   34 1  
    35   31   35 1  
    36   31   36 1  
    37   30   37 1  
    38    5   29 1  
    39   38   39 1  
    40   38   40 1  
    41   38   41 1  
    42   39   42 1  
    43   31   38 1  
# Name:          No_5_108
# Creation time: Thu Mar 21 10:22:29 2024


@<TRIPOS>MOLECULE
000002_000002
   42    43     1     1     1
SMALL
USER_CHARGES


@<TRIPOS>ATOM
      1 C17        -9.9380  -44.0780   32.3390 C.ar       1 <1>        0.210
      2 C20        -7.4650  -44.7920   31.3410 C.ar       1 <1>        0.110
      3 C21        -8.5840  -45.5640   31.0680 C.ar       1 <1>        0.230
      4 C16        -9.8330  -45.1980   31.5350 C.ar       1 <1>        0.170
      5 C18        -8.8360  -43.2880   32.6200 C.ar       1 <1>        0.160
      6 C19        -7.6280  -43.6740   32.1130 C.ar       1 <1>        0.060
      7 H         -10.9020  -43.8130   32.7580 H          1 <1>        0.000
      8 H          -6.4902  -45.0660   30.9541 H          1 <1>        0.000
      9 H          -8.4780  -46.4683   30.4798 H          1 <1>        0.000
     10 C1        -11.0620  -46.0530   31.2420 C.3        1 <1>        0.000
     11 C2        -11.7040  -45.5900   29.9380 C.ar       1 <1>        0.160
     12 C3        -13.0230  -45.1270   29.9340 C.ar       1 <1>        0.210
     13 C4        -13.6110  -44.7030   28.7390 C.ar       1 <1>        0.210
     14 C5        -12.8800  -44.7430   27.5480 C.ar       1 <1>        0.220
     15 C6        -11.5610  -45.2070   27.5520 C.ar       1 <1>        0.190
     16 C7        -10.9730  -45.6300   28.7470 C.ar       1 <1>        0.230
     17 H1        -11.7852  -45.9480   32.0642 H          1 <1>        0.000
     18 H3        -10.7619  -47.1073   31.1500 H          1 <1>        0.000
     19 H4        -13.5890  -45.0960   30.8580 H          1 <1>        0.000
     20 H5        -14.6338  -44.3441   28.7360 H          1 <1>        0.000
     21 H6        -13.3369  -44.4151   26.6213 H          1 <1>        0.000
     22 H7        -10.9950  -45.2380   26.6280 H          1 <1>        0.000
     23 H8         -9.9505  -45.9898   28.7500 H          1 <1>        0.000
     24 C1         -6.4070  -42.8150   32.4270 C.3        1 <1>        0.060
     25 H2         -6.6600  -42.0939   33.2182 H          1 <1>        0.000
     26 O3         -6.0050  -42.1110   31.2500 O.3        1 <1>        0.820
     27 H5         -5.5839  -43.4601   32.7681 H          1 <1>        0.000
     28 H6         -5.7850  -42.7270   30.5610 H          1 <1>        0.000
     29 C1         -8.9670  -42.0280   33.4680 C.3        1 <1>        0.030
     30 N2         -8.6280  -42.3140   34.8840 N.4        1 <1>        0.360
     31 C3         -8.7380  -41.1220   35.7600 C.3        1 <1>        0.040
     32 H1         -9.2310  -43.0430   35.2320 H          1 <1>        0.000
     33 H6        -10.0008  -41.6621   33.3820 H          1 <1>        0.000
     34 H7         -8.2931  -41.2641   33.0530 H          1 <1>        0.000
     35 H8         -8.4782  -41.3798   36.7973 H          1 <1>        0.000
     36 H10        -8.0560  -40.3270   35.4240 H          1 <1>        0.000
     37 H2         -7.6918  -42.6841   34.9360 H          1 <1>        0.000
     38 C1        -10.1740  -40.5670   35.7490 C.3        1 <1>       -0.250
     39 O3        -11.0460  -41.5140   35.1250 O.3        1 <1>        0.560
     40 H4        -10.1980  -39.6218   35.1869 H          1 <1>        0.000
     41 H5        -10.5061  -40.3880   36.7823 H          1 <1>        0.000
     42 H6        -11.9349  -41.1790   35.1140 H          1 <1>        0.000
@<TRIPOS>BOND
     1    3    2 ar 
     2    3    4 ar 
     3    2    6 ar 
     4    4    1 ar 
     5    6    5 ar 
     6    1    5 ar 
     7    1    7 1  
     8    2    8 1  
     9    3    9 1  
    10   10   11 1  
    11   11   12 ar 
    12   11   16 ar 
    13   16   15 ar 
    14   15   14 ar 
    15   14   13 ar 
    16   13   12 ar 
    17   10   17 1  
    18   10   18 1  
    19   12   19 1  
    20   13   20 1  
    21   14   21 1  
    22   15   22 1  
    23   16   23 1  
    24    4   10 1  
    25   24   25 1  
    26   24   26 1  
    27   24   27 1  
    28   26   28 1  
    29    6   24 1  
    30   30   29 1  
    31   30   31 1  
    32   30   32 1  
    33   29   33 1  
    34   29   34 1  
    35   31   35 1  
    36   31   36 1  
    37   30   37 1  
    38    5   29 1  
    39   38   39 1  
    40   38   40 1  
    41   38   41 1  
    42   39   42 1  
    43   31   38 1  
# Name:          No_6_2
# Creation time: Thu Mar 21 10:22:29 2024


@<TRIPOS>MOLECULE
000002_000003
   42    43     1     1     1
SMALL
USER_CHARGES


@<TRIPOS>ATOM
      1 C17        -9.9380  -44.0780   32.3390 C.ar       1 <1>        0.210
      2 C20        -7.4650  -44.7920   31.3410 C.ar       1 <1>        0.110
      3 C21        -8.5840  -45.5640   31.0680 C.ar       1 <1>        0.230
      4 C16        -9.8330  -45.1980   31.5350 C.ar       1 <1>        0.170
      5 C18        -8.8360  -43.2880   32.6200 C.ar       1 <1>        0.160
      6 C19        -7.6280  -43.6740   32.1130 C.ar       1 <1>        0.060
      7 H         -10.9020  -43.8130   32.7580 H          1 <1>        0.000
      8 H          -6.4902  -45.0660   30.9541 H          1 <1>        0.000
      9 H          -8.4780  -46.4683   30.4798 H          1 <1>        0.000
     10 C1        -11.0620  -46.0530   31.2420 C.3        1 <1>        0.000
     11 C2        -11.7040  -45.5900   29.9380 C.ar       1 <1>        0.160
     12 C3        -13.0230  -45.1270   29.9340 C.ar       1 <1>        0.210
     13 C4        -13.6110  -44.7030   28.7390 C.ar       1 <1>        0.210
     14 C5        -12.8800  -44.7430   27.5480 C.ar       1 <1>        0.220
     15 C6        -11.5610  -45.2070   27.5520 C.ar       1 <1>        0.190
     16 C7        -10.9730  -45.6300   28.7470 C.ar       1 <1>        0.230
     17 H1        -11.7852  -45.9480   32.0642 H          1 <1>        0.000
     18 H3        -10.7619  -47.1073   31.1500 H          1 <1>        0.000
     19 H4        -13.5890  -45.0960   30.8580 H          1 <1>        0.000
     20 H5        -14.6338  -44.3441   28.7360 H          1 <1>        0.000
     21 H6        -13.3369  -44.4151   26.6213 H          1 <1>        0.000
     22 H7        -10.9950  -45.2380   26.6280 H          1 <1>        0.000
     23 H8         -9.9505  -45.9898   28.7500 H          1 <1>        0.000
     24 C1         -6.4070  -42.8150   32.4270 C.3        1 <1>        0.060
     25 H2         -6.6600  -42.0939   33.2182 H          1 <1>        0.000
     26 O3         -6.0050  -42.1110   31.2500 O.3        1 <1>        0.820
     27 H5         -5.5839  -43.4601   32.7681 H          1 <1>        0.000
     28 H6         -5.7850  -42.7270   30.5610 H          1 <1>        0.000
     29 C1         -8.9670  -42.0280   33.4680 C.3        1 <1>        0.030
     30 N2         -8.6280  -42.3140   34.8840 N.4        1 <1>        0.360
     31 C3         -8.7380  -41.1220   35.7600 C.3        1 <1>        0.040
     32 H1         -9.2310  -43.0430   35.2320 H          1 <1>        0.000
     33 H6        -10.0008  -41.6621   33.3820 H          1 <1>        0.000
     34 H7         -8.2931  -41.2641   33.0530 H          1 <1>        0.000
     35 H8         -8.4782  -41.3798   36.7973 H          1 <1>        0.000
     36 H10        -8.0560  -40.3270   35.4240 H          1 <1>        0.000
     37 H2         -7.6918  -42.6841   34.9360 H          1 <1>        0.000
     38 C1        -10.1740  -40.5670   35.7490 C.3        1 <1>       -0.250
     39 O3        -11.0460  -41.5140   35.1250 O.3        1 <1>        0.560
     40 H4        -10.1980  -39.6218   35.1869 H          1 <1>        0.000
     41 H5        -10.5061  -40.3880   36.7823 H          1 <1>        0.000
     42 H6        -11.9349  -41.1790   35.1140 H          1 <1>        0.000
@<TRIPOS>BOND
     1    3    2 ar 
     2    3    4 ar 
     3    2    6 ar 
     4    4    1 ar 
     5    6    5 ar 
     6    1    5 ar 
     7    1    7 1  
     8    2    8 1  
     9    3    9 1  
    10   10   11 1  
    11   11   12 ar 
    12   11   16 ar 
    13   16   15 ar 
    14   15   14 ar 
    15   14   13 ar 
    16   13   12 ar 
    17   10   17 1  
    18   10   18 1  
    19   12   19 1  
    20   13   20 1  
    21   14   21 1  
    22   15   22 1  
    23   16   23 1  
    24    4   10 1  
    25   24   25 1  
    26   24   26 1  
    27   24   27 1  
    28   26   28 1  
    29    6   24 1  
    30   30   29 1  
    31   30   31 1  
    32   30   32 1  
    33   29   33 1  
    34   29   34 1  
    35   31   35 1  
    36   31   36 1  
    37   30   37 1  
    38    5   29 1  
    39   38   39 1  
    40   38   40 1  
    41   38   41 1  
    42   39   42 1  
    43   31   38 1  
# Name:          No_7_2
# Creation time: Thu Mar 21 10:22:29 2024


@<TRIPOS>MOLECULE
000002_000004
   42    43     1     1     1
SMALL
USER_CHARGES


@<TRIPOS>ATOM
      1 C17        -9.9380  -44.0780   32.3390 C.ar       1 <1>        0.210
      2 C20        -7.4650  -44.7920   31.3410 C.ar       1 <1>        0.110
      3 C21        -8.5840  -45.5640   31.0680 C.ar       1 <1>        0.230
      4 C16        -9.8330  -45.1980   31.5350 C.ar       1 <1>        0.170
      5 C18        -8.8360  -43.2880   32.6200 C.ar       1 <1>        0.160
      6 C19        -7.6280  -43.6740   32.1130 C.ar       1 <1>        0.060
      7 H         -10.9020  -43.8130   32.7580 H          1 <1>        0.000
      8 H          -6.4902  -45.0660   30.9541 H          1 <1>        0.000
      9 H          -8.4780  -46.4683   30.4798 H          1 <1>        0.000
     10 C1        -11.0620  -46.0530   31.2420 C.3        1 <1>        0.000
     11 C2        -11.7040  -45.5900   29.9380 C.ar       1 <1>        0.160
     12 C3        -13.0230  -45.1270   29.9340 C.ar       1 <1>        0.210
     13 C4        -13.6110  -44.7030   28.7390 C.ar       1 <1>        0.210
     14 C5        -12.8800  -44.7430   27.5480 C.ar       1 <1>        0.220
     15 C6        -11.5610  -45.2070   27.5520 C.ar       1 <1>        0.190
     16 C7        -10.9730  -45.6300   28.7470 C.ar       1 <1>        0.230
     17 H1        -11.7852  -45.9480   32.0642 H          1 <1>        0.000
     18 H3        -10.7619  -47.1073   31.1500 H          1 <1>        0.000
     19 H4        -13.5890  -45.0960   30.8580 H          1 <1>        0.000
     20 H5        -14.6338  -44.3441   28.7360 H          1 <1>        0.000
     21 H6        -13.3369  -44.4151   26.6213 H          1 <1>        0.000
     22 H7        -10.9950  -45.2380   26.6280 H          1 <1>        0.000
     23 H8         -9.9505  -45.9898   28.7500 H          1 <1>        0.000
     24 C1         -6.4070  -42.8150   32.4270 C.3        1 <1>        0.060
     25 H2         -6.6600  -42.0939   33.2182 H          1 <1>        0.000
     26 O3         -6.0050  -42.1110   31.2500 O.3        1 <1>        0.820
     27 H5         -5.5839  -43.4601   32.7681 H          1 <1>        0.000
     28 H6         -5.7850  -42.7270   30.5610 H          1 <1>        0.000
     29 C1         -8.9670  -42.0280   33.4680 C.3        1 <1>        0.030
     30 N2         -8.6280  -42.3140   34.8840 N.4        1 <1>        0.360
     31 C3         -8.7380  -41.1220   35.7600 C.3        1 <1>        0.040
     32 H1         -9.2310  -43.0430   35.2320 H          1 <1>        0.000
     33 H6        -10.0008  -41.6621   33.3820 H          1 <1>        0.000
     34 H7         -8.2931  -41.2641   33.0530 H          1 <1>        0.000
     35 H8         -8.4782  -41.3798   36.7973 H          1 <1>        0.000
     36 H10        -8.0560  -40.3270   35.4240 H          1 <1>        0.000
     37 H2         -7.6918  -42.6841   34.9360 H          1 <1>        0.000
     38 C1        -10.1740  -40.5670   35.7490 C.3        1 <1>       -0.250
     39 O3        -10.7320  -40.6620   37.0620 O.3        1 <1>        0.530
     40 H4        -10.7868  -41.1518   35.0472 H          1 <1>        0.000
     41 H5        -10.1580  -39.5138   35.4319 H          1 <1>        0.000
     42 H6        -11.6187  -40.3211   37.0640 H          1 <1>        0.000
@<TRIPOS>BOND
     1    3    2 ar 
     2    3    4 ar 
     3    2    6 ar 
     4    4    1 ar 
     5    6    5 ar 
     6    1    5 ar 
     7    1    7 1  
     8    2    8 1  
     9    3    9 1  
    10   10   11 1  
    11   11   12 ar 
    12   11   16 ar 
    13   16   15 ar 
    14   15   14 ar 
    15   14   13 ar 
    16   13   12 ar 
    17   10   17 1  
    18   10   18 1  
    19   12   19 1  
    20   13   20 1  
    21   14   21 1  
    22   15   22 1  
    23   16   23 1  
    24    4   10 1  
    25   24   25 1  
    26   24   26 1  
    27   24   27 1  
    28   26   28 1  
    29    6   24 1  
    30   30   29 1  
    31   30   31 1  
    32   30   32 1  
    33   29   33 1  
    34   29   34 1  
    35   31   35 1  
    36   31   36 1  
    37   30   37 1  
    38    5   29 1  
    39   38   39 1  
    40   38   40 1  
    41   38   41 1  
    42   39   42 1  
    43   31   38 1  
# Name:          No_5_109
# Creation time: Thu Mar 21 10:22:29 2024


@<TRIPOS>MOLECULE
000002_000005
   42    43     1     1     1
SMALL
USER_CHARGES


@<TRIPOS>ATOM
      1 C17        -9.9380  -44.0780   32.3390 C.ar       1 <1>        0.210
      2 C20        -7.4650  -44.7920   31.3410 C.ar       1 <1>        0.110
      3 C21        -8.5840  -45.5640   31.0680 C.ar       1 <1>        0.230
      4 C16        -9.8330  -45.1980   31.5350 C.ar       1 <1>        0.170
      5 C18        -8.8360  -43.2880   32.6200 C.ar       1 <1>        0.160
      6 C19        -7.6280  -43.6740   32.1130 C.ar       1 <1>        0.060
      7 H         -10.9020  -43.8130   32.7580 H          1 <1>        0.000
      8 H          -6.4902  -45.0660   30.9541 H          1 <1>        0.000
      9 H          -8.4780  -46.4683   30.4798 H          1 <1>        0.000
     10 C1        -11.0620  -46.0530   31.2420 C.3        1 <1>        0.000
     11 C2        -11.7040  -45.5900   29.9380 C.ar       1 <1>        0.160
     12 C3        -13.0230  -45.1270   29.9340 C.ar       1 <1>        0.210
     13 C4        -13.6110  -44.7030   28.7390 C.ar       1 <1>        0.210
     14 C5        -12.8800  -44.7430   27.5480 C.ar       1 <1>        0.220
     15 C6        -11.5610  -45.2070   27.5520 C.ar       1 <1>        0.190
     16 C7        -10.9730  -45.6300   28.7470 C.ar       1 <1>        0.230
     17 H1        -11.7852  -45.9480   32.0642 H          1 <1>        0.000
     18 H3        -10.7619  -47.1073   31.1500 H          1 <1>        0.000
     19 H4        -13.5890  -45.0960   30.8580 H          1 <1>        0.000
     20 H5        -14.6338  -44.3441   28.7360 H          1 <1>        0.000
     21 H6        -13.3369  -44.4151   26.6213 H          1 <1>        0.000
     22 H7        -10.9950  -45.2380   26.6280 H          1 <1>        0.000
     23 H8         -9.9505  -45.9898   28.7500 H          1 <1>        0.000
     24 C1         -6.4070  -42.8150   32.4270 C.3        1 <1>        0.060
     25 H2         -6.6600  -42.0939   33.2182 H          1 <1>        0.000
     26 O3         -6.0050  -42.1110   31.2500 O.3        1 <1>        0.820
     27 H5         -5.5839  -43.4601   32.7681 H          1 <1>        0.000
     28 H6         -5.7850  -42.7270   30.5610 H          1 <1>        0.000
     29 C1         -8.9670  -42.0280   33.4680 C.3        1 <1>        0.030
     30 N2         -8.6280  -42.3140   34.8840 N.4        1 <1>        0.360
     31 C3         -8.7380  -41.1220   35.7600 C.3        1 <1>        0.040
     32 H1         -9.2310  -43.0430   35.2320 H          1 <1>        0.000
     33 H6        -10.0008  -41.6621   33.3820 H          1 <1>        0.000
     34 H7         -8.2931  -41.2641   33.0530 H          1 <1>        0.000
     35 H8         -8.4782  -41.3798   36.7973 H          1 <1>        0.000
     36 H10        -8.0560  -40.3270   35.4240 H          1 <1>        0.000
     37 H2         -7.6918  -42.6841   34.9360 H          1 <1>        0.000
     38 C1        -10.1740  -40.5670   35.7490 C.3        1 <1>       -0.250
     39 O3        -10.7320  -40.6620   37.0620 O.3        1 <1>        0.530
     40 H4        -10.7868  -41.1518   35.0472 H          1 <1>        0.000
     41 H5        -10.1580  -39.5138   35.4319 H          1 <1>        0.000
     42 H6        -11.6187  -40.3211   37.0640 H          1 <1>        0.000
@<TRIPOS>BOND
     1    3    2 ar 
     2    3    4 ar 
     3    2    6 ar 
     4    4    1 ar 
     5    6    5 ar 
     6    1    5 ar 
     7    1    7 1  
     8    2    8 1  
     9    3    9 1  
    10   10   11 1  
    11   11   12 ar 
    12   11   16 ar 
    13   16   15 ar 
    14   15   14 ar 
    15   14   13 ar 
    16   13   12 ar 
    17   10   17 1  
    18   10   18 1  
    19   12   19 1  
    20   13   20 1  
    21   14   21 1  
    22   15   22 1  
    23   16   23 1  
    24    4   10 1  
    25   24   25 1  
    26   24   26 1  
    27   24   27 1  
    28   26   28 1  
    29    6   24 1  
    30   30   29 1  
    31   30   31 1  
    32   30   32 1  
    33   29   33 1  
    34   29   34 1  
    35   31   35 1  
    36   31   36 1  
    37   30   37 1  
    38    5   29 1  
    39   38   39 1  
    40   38   40 1  
    41   38   41 1  
    42   39   42 1  
    43   31   38 1  
# Name:          No_6_1
# Creation time: Thu Mar 21 10:22:29 2024


@<TRIPOS>MOLECULE
000002_000006
   42    43     1     1     1
SMALL
USER_CHARGES


@<TRIPOS>ATOM
      1 C17        -9.9380  -44.0780   32.3390 C.ar       1 <1>        0.210
      2 C20        -7.4650  -44.7920   31.3410 C.ar       1 <1>        0.110
      3 C21        -8.5840  -45.5640   31.0680 C.ar       1 <1>        0.230
      4 C16        -9.8330  -45.1980   31.5350 C.ar       1 <1>        0.170
      5 C18        -8.8360  -43.2880   32.6200 C.ar       1 <1>        0.160
      6 C19        -7.6280  -43.6740   32.1130 C.ar       1 <1>        0.060
      7 H         -10.9020  -43.8130   32.7580 H          1 <1>        0.000
      8 H          -6.4902  -45.0660   30.9541 H          1 <1>        0.000
      9 H          -8.4780  -46.4683   30.4798 H          1 <1>        0.000
     10 C1        -11.0620  -46.0530   31.2420 C.3        1 <1>        0.000
     11 C2        -11.7040  -45.5900   29.9380 C.ar       1 <1>        0.160
     12 C3        -13.0230  -45.1270   29.9340 C.ar       1 <1>        0.210
     13 C4        -13.6110  -44.7030   28.7390 C.ar       1 <1>        0.210
     14 C5        -12.8800  -44.7430   27.5480 C.ar       1 <1>        0.220
     15 C6        -11.5610  -45.2070   27.5520 C.ar       1 <1>        0.190
     16 C7        -10.9730  -45.6300   28.7470 C.ar       1 <1>        0.230
     17 H1        -11.7852  -45.9480   32.0642 H          1 <1>        0.000
     18 H3        -10.7619  -47.1073   31.1500 H          1 <1>        0.000
     19 H4        -13.5890  -45.0960   30.8580 H          1 <1>        0.000
     20 H5        -14.6338  -44.3441   28.7360 H          1 <1>        0.000
     21 H6        -13.3369  -44.4151   26.6213 H          1 <1>        0.000
     22 H7        -10.9950  -45.2380   26.6280 H          1 <1>        0.000
     23 H8         -9.9505  -45.9898   28.7500 H          1 <1>        0.000
     24 C1         -6.4070  -42.8150   32.4270 C.3        1 <1>        0.060
     25 H2         -6.6600  -42.0939   33.2182 H          1 <1>        0.000
     26 O3         -6.0050  -42.1110   31.2500 O.3        1 <1>        0.820
     27 H5         -5.5839  -43.4601   32.7681 H          1 <1>        0.000
     28 H6         -5.7850  -42.7270   30.5610 H          1 <1>        0.000
     29 C1         -8.9670  -42.0280   33.4680 C.3        1 <1>        0.030
     30 N2         -8.6280  -42.3140   34.8840 N.4        1 <1>        0.360
     31 C3         -8.7380  -41.1220   35.7600 C.3        1 <1>        0.040
     32 H1         -9.2310  -43.0430   35.2320 H          1 <1>        0.000
     33 H6        -10.0008  -41.6621   33.3820 H          1 <1>        0.000
     34 H7         -8.2931  -41.2641   33.0530 H          1 <1>        0.000
     35 H8         -8.4782  -41.3798   36.7973 H          1 <1>        0.000
     36 H10        -8.0560  -40.3270   35.4240 H          1 <1>        0.000
     37 H2         -7.6918  -42.6841   34.9360 H          1 <1>        0.000
     38 C1        -10.1740  -40.5670   35.7490 C.3        1 <1>       -0.250
     39 O3        -10.7320  -40.6620   37.0620 O.3        1 <1>        0.530
     40 H4        -10.7868  -41.1518   35.0472 H          1 <1>        0.000
     41 H5        -10.1580  -39.5138   35.4319 H          1 <1>        0.000
     42 H6        -11.6187  -40.3211   37.0640 H          1 <1>        0.000
@<TRIPOS>BOND
     1    3    2 ar 
     2    3    4 ar 
     3    2    6 ar 
     4    4    1 ar 
     5    6    5 ar 
     6    1    5 ar 
     7    1    7 1  
     8    2    8 1  
     9    3    9 1  
    10   10   11 1  
    11   11   12 ar 
    12   11   16 ar 
    13   16   15 ar 
    14   15   14 ar 
    15   14   13 ar 
    16   13   12 ar 
    17   10   17 1  
    18   10   18 1  
    19   12   19 1  
    20   13   20 1  
    21   14   21 1  
    22   15   22 1  
    23   16   23 1  
    24    4   10 1  
    25   24   25 1  
    26   24   26 1  
    27   24   27 1  
    28   26   28 1  
    29    6   24 1  
    30   30   29 1  
    31   30   31 1  
    32   30   32 1  
    33   29   33 1  
    34   29   34 1  
    35   31   35 1  
    36   31   36 1  
    37   30   37 1  
    38    5   29 1  
    39   38   39 1  
    40   38   40 1  
    41   38   41 1  
    42   39   42 1  
    43   31   38 1  
# Name:          No_6_132
# Creation time: Thu Mar 21 11:01:05 2024


@<TRIPOS>MOLECULE
000001_000001
   48    49     1     1     1
SMALL
USER_CHARGES


@<TRIPOS>ATOM
      1 C17        -9.9380  -44.0780   32.3390 C.ar       1 <1>        0.210
      2 C20        -7.4650  -44.7920   31.3410 C.ar       1 <1>        0.110
      3 C21        -8.5840  -45.5640   31.0680 C.ar       1 <1>        0.230
      4 C16        -9.8330  -45.1980   31.5350 C.ar       1 <1>        0.100
      5 C18        -8.8360  -43.2880   32.6200 C.ar       1 <1>        0.160
      6 C19        -7.6280  -43.6740   32.1130 C.ar       1 <1>        0.100
      7 H          -6.7601  -43.0640   32.3360 H          1 <1>        0.000
      8 H         -10.9020  -43.8130   32.7580 H          1 <1>        0.000
      9 H          -8.4780  -46.4683   30.4798 H          1 <1>        0.000
     10 N1         -6.2510  -45.1330   30.8600 N.pl3      1 <1>        0.560
     11 H2         -6.1450  -45.9777   30.2802 H          1 <1>        0.000
     12 H3         -5.4297  -44.5488   31.0721 H          1 <1>        0.000
     13 C1        -11.9800  -45.5360   30.4820 C.2        1 <1>        0.090
     14 O1        -12.9540  -46.2410   30.2630 O.2        1 <1>        0.400
     15 N1        -11.9050  -44.2970   29.9440 N.am       1 <1>        0.050
     16 N2        -10.9740  -45.9910   31.2630 N.am       1 <1>        0.420
     17 H1        -11.1175  -43.7034   30.1099 H          1 <1>        0.000
     18 H4        -11.0280  -46.9065   31.6618 H          1 <1>        0.000
     19 N1        -13.6930  -42.8810   27.0600 N.ar       1 <1>        0.080
     20 C1        -12.6900  -43.3360   27.8410 C.ar       1 <1>        0.080
     21 C2        -12.9570  -43.8180   29.1260 C.ar       1 <1>        0.070
     22 C3        -14.2730  -43.8200   29.5930 C.ar       1 <1>        0.080
     23 C4        -15.2930  -43.3420   28.7660 C.ar       1 <1>        0.110
     24 C5        -14.9720  -42.8730   27.4890 C.ar       1 <1>        0.090
     25 H1        -11.6745  -43.3250   27.4618 H          1 <1>        0.000
     26 H5        -15.7503  -42.4989   26.8338 H          1 <1>        0.000
     27 C1        -16.7390  -43.3320   29.2510 C.3        1 <1>       -0.230
     28 H2        -16.8210  -43.9268   30.1727 H          1 <1>        0.000
     29 O3        -17.1450  -41.9860   29.5140 O.3        1 <1>        0.850
     30 H4        -17.3890  -43.7660   28.4770 H          1 <1>        0.000
     31 H6        -17.0769  -41.4655   28.7222 H          1 <1>        0.000
     32 C         -14.1220  -43.6540   31.8970 C.cat      1 <1>        0.090
     33 N         -14.5570  -44.2790   30.8300 N.pl3      1 <1>        0.500
     34 N         -13.4000  -42.5660   31.7710 N.pl3      1 <1>        0.520
     35 N1        -14.4080  -44.1150   33.0910 N.pl3      1 <1>        0.110
     36 H2        -15.1246  -45.1344   30.9139 H          1 <1>        0.000
     37 H3        -13.0509  -42.0629   32.5992 H          1 <1>        0.000
     38 H4        -13.1671  -42.1911   30.8403 H          1 <1>        0.000
     39 H5        -14.9739  -44.9678   33.2070 H          1 <1>        0.000
     40 H6        -14.0729  -43.6348   33.9383 H          1 <1>        0.000
     41 O1         -8.4260  -42.3130   34.7720 O.3        1 <1>        0.390
     42 C1         -8.9670  -42.0280   33.4680 C.3        1 <1>        0.030
     43 C2         -8.4940  -41.1900   35.6690 C.3        1 <1>        0.100
     44 H5         -8.4111  -41.2162   32.9761 H          1 <1>        0.000
     45 H6        -10.0313  -41.7569   33.5300 H          1 <1>        0.000
     46 H7         -8.0619  -41.4991   36.6322 H          1 <1>        0.000
     47 H8         -9.5351  -40.8783   35.8389 H          1 <1>        0.000
     48 H9         -7.9151  -40.3371   35.2850 H          1 <1>        0.000
@<TRIPOS>BOND
     1    3    2 ar 
     2    3    4 ar 
     3    2    6 ar 
     4    4    1 ar 
     5    6    7 1  
     6    6    5 ar 
     7    1    5 ar 
     8    1    8 1  
     9    3    9 1  
    10   10   11 1  
    11   10   12 1  
    12    2   10 1  
    13   13   14 2  
    14   13   15 am 
    15   13   16 am 
    16   15   17 1  
    17   16   18 1  
    18    4   16 1  
    19   19   20 ar 
    20   19   24 ar 
    21   20   21 ar 
    22   21   22 ar 
    23   22   23 ar 
    24   23   24 ar 
    25   20   25 1  
    26   24   26 1  
    27   15   21 1  
    28   27   28 1  
    29   27   29 1  
    30   27   30 1  
    31   29   31 1  
    32   23   27 1  
    33   32   33 ar 
    34   32   34 ar 
    35   32   35 ar 
    36   33   36 1  
    37   34   37 1  
    38   34   38 1  
    39   35   39 1  
    40   35   40 1  
    41   22   33 1  
    42   41   42 1  
    43   41   43 1  
    44   42   44 1  
    45   42   45 1  
    46   43   46 1  
    47   43   47 1  
    48   43   48 1  
    49    5   42 1  
# Name:          No_7_1
# Creation time: Thu Mar 21 11:01:05 2024


@<TRIPOS>MOLECULE
000001_000002
   48    49     1     1     1
SMALL
USER_CHARGES


@<TRIPOS>ATOM
      1 C17        -9.9380  -44.0780   32.3390 C.ar       1 <1>        0.210
      2 C20        -7.4650  -44.7920   31.3410 C.ar       1 <1>        0.110
      3 C21        -8.5840  -45.5640   31.0680 C.ar       1 <1>        0.230
      4 C16        -9.8330  -45.1980   31.5350 C.ar       1 <1>        0.100
      5 C18        -8.8360  -43.2880   32.6200 C.ar       1 <1>        0.160
      6 C19        -7.6280  -43.6740   32.1130 C.ar       1 <1>        0.100
      7 H          -6.7601  -43.0640   32.3360 H          1 <1>        0.000
      8 H         -10.9020  -43.8130   32.7580 H          1 <1>        0.000
      9 H          -8.4780  -46.4683   30.4798 H          1 <1>        0.000
     10 N1         -6.2510  -45.1330   30.8600 N.pl3      1 <1>        0.560
     11 H2         -6.1450  -45.9777   30.2802 H          1 <1>        0.000
     12 H3         -5.4297  -44.5488   31.0721 H          1 <1>        0.000
     13 C1        -11.9800  -45.5360   30.4820 C.2        1 <1>        0.090
     14 O1        -12.9540  -46.2410   30.2630 O.2        1 <1>        0.400
     15 N1        -11.9050  -44.2970   29.9440 N.am       1 <1>        0.050
     16 N2        -10.9740  -45.9910   31.2630 N.am       1 <1>        0.420
     17 H1        -11.1175  -43.7034   30.1099 H          1 <1>        0.000
     18 H4        -11.0280  -46.9065   31.6618 H          1 <1>        0.000
     19 N1        -13.6930  -42.8810   27.0600 N.ar       1 <1>        0.080
     20 C1        -12.6900  -43.3360   27.8410 C.ar       1 <1>        0.080
     21 C2        -12.9570  -43.8180   29.1260 C.ar       1 <1>        0.070
     22 C3        -14.2730  -43.8200   29.5930 C.ar       1 <1>        0.080
     23 C4        -15.2930  -43.3420   28.7660 C.ar       1 <1>        0.110
     24 C5        -14.9720  -42.8730   27.4890 C.ar       1 <1>        0.090
     25 H1        -11.6745  -43.3250   27.4618 H          1 <1>        0.000
     26 H5        -15.7503  -42.4989   26.8338 H          1 <1>        0.000
     27 C1        -16.7390  -43.3320   29.2510 C.3        1 <1>       -0.230
     28 H2        -16.8210  -43.9268   30.1727 H          1 <1>        0.000
     29 O3        -17.1450  -41.9860   29.5140 O.3        1 <1>        0.850
     30 H4        -17.3890  -43.7660   28.4770 H          1 <1>        0.000
     31 H6        -17.0769  -41.4655   28.7222 H          1 <1>        0.000
     32 C         -14.1220  -43.6540   31.8970 C.cat      1 <1>        0.090
     33 N         -14.5570  -44.2790   30.8300 N.pl3      1 <1>        0.500
     34 N         -13.4000  -42.5660   31.7710 N.pl3      1 <1>        0.520
     35 N1        -14.4080  -44.1150   33.0910 N.pl3      1 <1>        0.110
     36 H2        -15.1246  -45.1344   30.9139 H          1 <1>        0.000
     37 H3        -13.0509  -42.0629   32.5992 H          1 <1>        0.000
     38 H4        -13.1671  -42.1911   30.8403 H          1 <1>        0.000
     39 H5        -14.9739  -44.9678   33.2070 H          1 <1>        0.000
     40 H6        -14.0729  -43.6348   33.9383 H          1 <1>        0.000
     41 O1         -8.4260  -42.3130   34.7720 O.3        1 <1>        0.390
     42 C1         -8.9670  -42.0280   33.4680 C.3        1 <1>        0.030
     43 C2         -8.4940  -41.1900   35.6690 C.3        1 <1>        0.100
     44 H5         -8.4111  -41.2162   32.9761 H          1 <1>        0.000
     45 H6        -10.0313  -41.7569   33.5300 H          1 <1>        0.000
     46 H7         -8.0619  -41.4991   36.6322 H          1 <1>        0.000
     47 H8         -9.5351  -40.8783   35.8389 H          1 <1>        0.000
     48 H9         -7.9151  -40.3371   35.2850 H          1 <1>        0.000
@<TRIPOS>BOND
     1    3    2 ar 
     2    3    4 ar 
     3    2    6 ar 
     4    4    1 ar 
     5    6    7 1  
     6    6    5 ar 
     7    1    5 ar 
     8    1    8 1  
     9    3    9 1  
    10   10   11 1  
    11   10   12 1  
    12    2   10 1  
    13   13   14 2  
    14   13   15 am 
    15   13   16 am 
    16   15   17 1  
    17   16   18 1  
    18    4   16 1  
    19   19   20 ar 
    20   19   24 ar 
    21   20   21 ar 
    22   21   22 ar 
    23   22   23 ar 
    24   23   24 ar 
    25   20   25 1  
    26   24   26 1  
    27   15   21 1  
    28   27   28 1  
    29   27   29 1  
    30   27   30 1  
    31   29   31 1  
    32   23   27 1  
    33   32   33 ar 
    34   32   34 ar 
    35   32   35 ar 
    36   33   36 1  
    37   34   37 1  
    38   34   38 1  
    39   35   39 1  
    40   35   40 1  
    41   22   33 1  
    42   41   42 1  
    43   41   43 1  
    44   42   44 1  
    45   42   45 1  
    46   43   46 1  
    47   43   47 1  
    48   43   48 1  
    49    5   42 1  
# Name:          No_6_131
# Creation time: Thu Mar 21 11:01:05 2024


@<TRIPOS>MOLECULE
000001_000003
   48    49     1     1     1
SMALL
USER_CHARGES


@<TRIPOS>ATOM
      1 C17        -9.9380  -44.0780   32.3390 C.ar       1 <1>        0.210
      2 C20        -7.4650  -44.7920   31.3410 C.ar       1 <1>        0.110
      3 C21        -8.5840  -45.5640   31.0680 C.ar       1 <1>        0.230
      4 C16        -9.8330  -45.1980   31.5350 C.ar       1 <1>        0.100
      5 C18        -8.8360  -43.2880   32.6200 C.ar       1 <1>        0.160
      6 C19        -7.6280  -43.6740   32.1130 C.ar       1 <1>        0.100
      7 H          -6.7601  -43.0640   32.3360 H          1 <1>        0.000
      8 H         -10.9020  -43.8130   32.7580 H          1 <1>        0.000
      9 H          -8.4780  -46.4683   30.4798 H          1 <1>        0.000
     10 N1         -6.2510  -45.1330   30.8600 N.pl3      1 <1>        0.560
     11 H2         -6.1450  -45.9777   30.2802 H          1 <1>        0.000
     12 H3         -5.4297  -44.5488   31.0721 H          1 <1>        0.000
     13 C1        -11.9800  -45.5360   30.4820 C.2        1 <1>        0.090
     14 O1        -12.9540  -46.2410   30.2630 O.2        1 <1>        0.400
     15 N1        -11.9050  -44.2970   29.9440 N.am       1 <1>        0.050
     16 N2        -10.9740  -45.9910   31.2630 N.am       1 <1>        0.420
     17 H1        -11.1175  -43.7034   30.1099 H          1 <1>        0.000
     18 H4        -11.0280  -46.9065   31.6618 H          1 <1>        0.000
     19 N1        -13.6930  -42.8810   27.0600 N.ar       1 <1>        0.080
     20 C1        -12.6900  -43.3360   27.8410 C.ar       1 <1>        0.080
     21 C2        -12.9570  -43.8180   29.1260 C.ar       1 <1>        0.070
     22 C3        -14.2730  -43.8200   29.5930 C.ar       1 <1>        0.080
     23 C4        -15.2930  -43.3420   28.7660 C.ar       1 <1>        0.110
     24 C5        -14.9720  -42.8730   27.4890 C.ar       1 <1>        0.090
     25 H1        -11.6745  -43.3250   27.4618 H          1 <1>        0.000
     26 H5        -15.7503  -42.4989   26.8338 H          1 <1>        0.000
     27 C1        -16.7390  -43.3320   29.2510 C.3        1 <1>       -0.230
     28 H2        -16.8210  -43.9268   30.1727 H          1 <1>        0.000
     29 O3        -17.1450  -41.9860   29.5140 O.3        1 <1>        0.850
     30 H4        -17.3890  -43.7660   28.4770 H          1 <1>        0.000
     31 H6        -17.0769  -41.4655   28.7222 H          1 <1>        0.000
     32 C         -14.1220  -43.6540   31.8970 C.cat      1 <1>        0.090
     33 N         -14.5570  -44.2790   30.8300 N.pl3      1 <1>        0.500
     34 N         -13.4000  -42.5660   31.7710 N.pl3      1 <1>        0.520
     35 N1        -14.4080  -44.1150   33.0910 N.pl3      1 <1>        0.110
     36 H2        -15.1246  -45.1344   30.9139 H          1 <1>        0.000
     37 H3        -13.0509  -42.0629   32.5992 H          1 <1>        0.000
     38 H4        -13.1671  -42.1911   30.8403 H          1 <1>        0.000
     39 H5        -14.9739  -44.9678   33.2070 H          1 <1>        0.000
     40 H6        -14.0729  -43.6348   33.9383 H          1 <1>        0.000
     41 O1         -8.7660  -42.3980   34.8450 O.3        1 <1>        0.250
     42 C1         -8.9670  -42.0280   33.4680 C.3        1 <1>        0.030
     43 C2         -8.8660  -41.2820   35.7500 C.3        1 <1>        0.120
     44 H5         -8.2091  -41.3031   33.1361 H          1 <1>        0.000
     45 H6         -9.9704  -41.6048   33.3129 H          1 <1>        0.000
     46 H7         -8.7000  -41.6581   36.7703 H          1 <1>        0.000
     47 H8         -9.8647  -40.8231   35.7060 H          1 <1>        0.000
     48 H9         -8.1030  -40.5210   35.5290 H          1 <1>        0.000
@<TRIPOS>BOND
     1    3    2 ar 
     2    3    4 ar 
     3    2    6 ar 
     4    4    1 ar 
     5    6    7 1  
     6    6    5 ar 
     7    1    5 ar 
     8    1    8 1  
     9    3    9 1  
    10   10   11 1  
    11   10   12 1  
    12    2   10 1  
    13   13   14 2  
    14   13   15 am 
    15   13   16 am 
    16   15   17 1  
    17   16   18 1  
    18    4   16 1  
    19   19   20 ar 
    20   19   24 ar 
    21   20   21 ar 
    22   21   22 ar 
    23   22   23 ar 
    24   23   24 ar 
    25   20   25 1  
    26   24   26 1  
    27   15   21 1  
    28   27   28 1  
    29   27   29 1  
    30   27   30 1  
    31   29   31 1  
    32   23   27 1  
    33   32   33 ar 
    34   32   34 ar 
    35   32   35 ar 
    36   33   36 1  
    37   34   37 1  
    38   34   38 1  
    39   35   39 1  
    40   35   40 1  
    41   22   33 1  
    42   41   42 1  
    43   41   43 1  
    44   42   44 1  
    45   42   45 1  
    46   43   46 1  
    47   43   47 1  
    48   43   48 1  
    49    5   42 1  
# Name:          No_7_2
# Creation time: Thu Mar 21 11:01:05 2024


@<TRIPOS>MOLECULE
000001_000004
   48    49     1     1     1
SMALL
USER_CHARGES


@<TRIPOS>ATOM
      1 C17        -9.9380  -44.0780   32.3390 C.ar       1 <1>        0.210
      2 C20        -7.4650  -44.7920   31.3410 C.ar       1 <1>        0.110
      3 C21        -8.5840  -45.5640   31.0680 C.ar       1 <1>        0.230
      4 C16        -9.8330  -45.1980   31.5350 C.ar       1 <1>        0.100
      5 C18        -8.8360  -43.2880   32.6200 C.ar       1 <1>        0.160
      6 C19        -7.6280  -43.6740   32.1130 C.ar       1 <1>        0.100
      7 H          -6.7601  -43.0640   32.3360 H          1 <1>        0.000
      8 H         -10.9020  -43.8130   32.7580 H          1 <1>        0.000
      9 H          -8.4780  -46.4683   30.4798 H          1 <1>        0.000
     10 N1         -6.2510  -45.1330   30.8600 N.pl3      1 <1>        0.560
     11 H2         -6.1450  -45.9777   30.2802 H          1 <1>        0.000
     12 H3         -5.4297  -44.5488   31.0721 H          1 <1>        0.000
     13 C1        -11.9800  -45.5360   30.4820 C.2        1 <1>        0.090
     14 O1        -12.9540  -46.2410   30.2630 O.2        1 <1>        0.400
     15 N1        -11.9050  -44.2970   29.9440 N.am       1 <1>        0.050
     16 N2        -10.9740  -45.9910   31.2630 N.am       1 <1>        0.420
     17 H1        -11.1175  -43.7034   30.1099 H          1 <1>        0.000
     18 H4        -11.0280  -46.9065   31.6618 H          1 <1>        0.000
     19 N1        -13.6930  -42.8810   27.0600 N.ar       1 <1>        0.080
     20 C1        -12.6900  -43.3360   27.8410 C.ar       1 <1>        0.080
     21 C2        -12.9570  -43.8180   29.1260 C.ar       1 <1>        0.070
     22 C3        -14.2730  -43.8200   29.5930 C.ar       1 <1>        0.080
     23 C4        -15.2930  -43.3420   28.7660 C.ar       1 <1>        0.110
     24 C5        -14.9720  -42.8730   27.4890 C.ar       1 <1>        0.090
     25 H1        -11.6745  -43.3250   27.4618 H          1 <1>        0.000
     26 H5        -15.7503  -42.4989   26.8338 H          1 <1>        0.000
     27 C1        -16.7390  -43.3320   29.2510 C.3        1 <1>       -0.230
     28 H2        -16.8210  -43.9268   30.1727 H          1 <1>        0.000
     29 O3        -17.1450  -41.9860   29.5140 O.3        1 <1>        0.850
     30 H4        -17.3890  -43.7660   28.4770 H          1 <1>        0.000
     31 H6        -17.0769  -41.4655   28.7222 H          1 <1>        0.000
     32 C         -14.1220  -43.6540   31.8970 C.cat      1 <1>        0.090
     33 N         -14.5570  -44.2790   30.8300 N.pl3      1 <1>        0.500
     34 N         -13.4000  -42.5660   31.7710 N.pl3      1 <1>        0.520
     35 N1        -14.4080  -44.1150   33.0910 N.pl3      1 <1>        0.110
     36 H2        -15.1246  -45.1344   30.9139 H          1 <1>        0.000
     37 H3        -13.0509  -42.0629   32.5992 H          1 <1>        0.000
     38 H4        -13.1671  -42.1911   30.8403 H          1 <1>        0.000
     39 H5        -14.9739  -44.9678   33.2070 H          1 <1>        0.000
     40 H6        -14.0729  -43.6348   33.9383 H          1 <1>        0.000
     41 O1         -8.7660  -42.3980   34.8450 O.3        1 <1>        0.250
     42 C1         -8.9670  -42.0280   33.4680 C.3        1 <1>        0.030
     43 C2         -8.8660  -41.2820   35.7500 C.3        1 <1>        0.120
     44 H5         -8.2091  -41.3031   33.1361 H          1 <1>        0.000
     45 H6         -9.9704  -41.6048   33.3129 H          1 <1>        0.000
     46 H7         -8.7000  -41.6581   36.7703 H          1 <1>        0.000
     47 H8         -9.8647  -40.8231   35.7060 H          1 <1>        0.000
     48 H9         -8.1030  -40.5210   35.5290 H          1 <1>        0.000
@<TRIPOS>BOND
     1    3    2 ar 
     2    3    4 ar 
     3    2    6 ar 
     4    4    1 ar 
     5    6    7 1  
     6    6    5 ar 
     7    1    5 ar 
     8    1    8 1  
     9    3    9 1  
    10   10   11 1  
    11   10   12 1  
    12    2   10 1  
    13   13   14 2  
    14   13   15 am 
    15   13   16 am 
    16   15   17 1  
    17   16   18 1  
    18    4   16 1  
    19   19   20 ar 
    20   19   24 ar 
    21   20   21 ar 
    22   21   22 ar 
    23   22   23 ar 
    24   23   24 ar 
    25   20   25 1  
    26   24   26 1  
    27   15   21 1  
    28   27   28 1  
    29   27   29 1  
    30   27   30 1  
    31   29   31 1  
    32   23   27 1  
    33   32   33 ar 
    34   32   34 ar 
    35   32   35 ar 
    36   33   36 1  
    37   34   37 1  
    38   34   38 1  
    39   35   39 1  
    40   35   40 1  
    41   22   33 1  
    42   41   42 1  
    43   41   43 1  
    44   42   44 1  
    45   42   45 1  
    46   43   46 1  
    47   43   47 1  
    48   43   48 1  
    49    5   42 1  
# Name:          No_7_160
# Creation time: Thu Mar 21 11:01:05 2024


@<TRIPOS>MOLECULE
000001_000005
   48    49     1     1     1
SMALL
USER_CHARGES


@<TRIPOS>ATOM
      1 C17        -9.9380  -44.0780   32.3390 C.ar       1 <1>        0.210
      2 C20        -7.4650  -44.7920   31.3410 C.ar       1 <1>        0.110
      3 C21        -8.5840  -45.5640   31.0680 C.ar       1 <1>        0.230
      4 C16        -9.8330  -45.1980   31.5350 C.ar       1 <1>        0.100
      5 C18        -8.8360  -43.2880   32.6200 C.ar       1 <1>        0.160
      6 C19        -7.6280  -43.6740   32.1130 C.ar       1 <1>        0.100
      7 H          -6.7601  -43.0640   32.3360 H          1 <1>        0.000
      8 H         -10.9020  -43.8130   32.7580 H          1 <1>        0.000
      9 H          -8.4780  -46.4683   30.4798 H          1 <1>        0.000
     10 N1         -6.2510  -45.1330   30.8600 N.pl3      1 <1>        0.560
     11 H2         -6.1450  -45.9777   30.2802 H          1 <1>        0.000
     12 H3         -5.4297  -44.5488   31.0721 H          1 <1>        0.000
     13 C1        -11.9800  -45.5360   30.4820 C.2        1 <1>        0.090
     14 O1        -12.9540  -46.2410   30.2630 O.2        1 <1>        0.400
     15 N1        -11.9050  -44.2970   29.9440 N.am       1 <1>        0.050
     16 N2        -10.9740  -45.9910   31.2630 N.am       1 <1>        0.420
     17 H1        -11.1175  -43.7034   30.1099 H          1 <1>        0.000
     18 H4        -11.0280  -46.9065   31.6618 H          1 <1>        0.000
     19 N1        -13.6930  -42.8810   27.0600 N.ar       1 <1>        0.080
     20 C1        -12.6900  -43.3360   27.8410 C.ar       1 <1>        0.080
     21 C2        -12.9570  -43.8180   29.1260 C.ar       1 <1>        0.070
     22 C3        -14.2730  -43.8200   29.5930 C.ar       1 <1>        0.080
     23 C4        -15.2930  -43.3420   28.7660 C.ar       1 <1>        0.110
     24 C5        -14.9720  -42.8730   27.4890 C.ar       1 <1>        0.090
     25 H1        -11.6745  -43.3250   27.4618 H          1 <1>        0.000
     26 H5        -15.7503  -42.4989   26.8338 H          1 <1>        0.000
     27 C1        -16.7390  -43.3320   29.2510 C.3        1 <1>       -0.230
     28 H2        -16.8210  -43.9268   30.1727 H          1 <1>        0.000
     29 O3        -17.1450  -41.9860   29.5140 O.3        1 <1>        0.850
     30 H4        -17.3890  -43.7660   28.4770 H          1 <1>        0.000
     31 H6        -17.0769  -41.4655   28.7222 H          1 <1>        0.000
     32 C         -14.1220  -43.6540   31.8970 C.cat      1 <1>        0.090
     33 N         -14.5570  -44.2790   30.8300 N.pl3      1 <1>        0.500
     34 N         -13.4000  -42.5660   31.7710 N.pl3      1 <1>        0.520
     35 N1        -14.4080  -44.1150   33.0910 N.pl3      1 <1>        0.110
     36 H2        -15.1246  -45.1344   30.9139 H          1 <1>        0.000
     37 H3        -13.0509  -42.0629   32.5992 H          1 <1>        0.000
     38 H4        -13.1671  -42.1911   30.8403 H          1 <1>        0.000
     39 H5        -14.9739  -44.9678   33.2070 H          1 <1>        0.000
     40 H6        -14.0729  -43.6348   33.9383 H          1 <1>        0.000
     41 O1         -8.7660  -42.3980   34.8450 O.3        1 <1>        0.250
     42 C1         -8.8660  -41.2820   35.7500 C.3        1 <1>        0.120
     43 C2         -8.9670  -42.0280   33.4680 C.3        1 <1>        0.030
     44 H4         -8.7000  -41.6581   36.7703 H          1 <1>        0.000
     45 H5         -9.8647  -40.8231   35.7060 H          1 <1>        0.000
     46 H6         -8.1030  -40.5210   35.5290 H          1 <1>        0.000
     47 H8         -8.2091  -41.3031   33.1361 H          1 <1>        0.000
     48 H9         -9.9703  -41.6049   33.3120 H          1 <1>        0.000
@<TRIPOS>BOND
     1    3    2 ar 
     2    3    4 ar 
     3    2    6 ar 
     4    4    1 ar 
     5    6    7 1  
     6    6    5 ar 
     7    1    5 ar 
     8    1    8 1  
     9    3    9 1  
    10   10   11 1  
    11   10   12 1  
    12    2   10 1  
    13   13   14 2  
    14   13   15 am 
    15   13   16 am 
    16   15   17 1  
    17   16   18 1  
    18    4   16 1  
    19   19   20 ar 
    20   19   24 ar 
    21   20   21 ar 
    22   21   22 ar 
    23   22   23 ar 
    24   23   24 ar 
    25   20   25 1  
    26   24   26 1  
    27   15   21 1  
    28   27   28 1  
    29   27   29 1  
    30   27   30 1  
    31   29   31 1  
    32   23   27 1  
    33   32   33 ar 
    34   32   34 ar 
    35   32   35 ar 
    36   33   36 1  
    37   34   37 1  
    38   34   38 1  
    39   35   39 1  
    40   35   40 1  
    41   22   33 1  
    42   41   42 1  
    43   41   43 1  
    44   42   44 1  
    45   42   45 1  
    46   42   46 1  
    47   43   47 1  
    48   43   48 1  
    49    5   43 1  
# Name:          No_7_133
# Creation time: Thu Mar 21 11:01:05 2024


@<TRIPOS>MOLECULE
000001_000006
   45    46     1     1     1
SMALL
USER_CHARGES


@<TRIPOS>ATOM
      1 C17        -9.9380  -44.0780   32.3390 C.ar       1 <1>        0.210
      2 C20        -7.4650  -44.7920   31.3410 C.ar       1 <1>        0.110
      3 C21        -8.5840  -45.5640   31.0680 C.ar       1 <1>        0.070
      4 C16        -9.8330  -45.1980   31.5350 C.ar       1 <1>        0.100
      5 C18        -8.8360  -43.2880   32.6200 C.ar       1 <1>        0.210
      6 C19        -7.6280  -43.6740   32.1130 C.ar       1 <1>        0.100
      7 H          -6.7601  -43.0640   32.3360 H          1 <1>        0.000
      8 H         -10.9020  -43.8130   32.7580 H          1 <1>        0.000
      9 H          -8.9290  -42.3920   33.2230 H          1 <1>        0.000
     10 N1         -6.2510  -45.1330   30.8600 N.pl3      1 <1>        0.560
     11 H2         -6.1450  -45.9777   30.2802 H          1 <1>        0.000
     12 H3         -5.4297  -44.5488   31.0721 H          1 <1>        0.000
     13 C1        -11.9800  -45.5360   30.4820 C.2        1 <1>        0.090
     14 O1        -12.9540  -46.2410   30.2630 O.2        1 <1>        0.400
     15 N1        -11.9050  -44.2970   29.9440 N.am       1 <1>        0.050
     16 N2        -10.9740  -45.9910   31.2630 N.am       1 <1>        0.420
     17 H1        -11.1175  -43.7034   30.1099 H          1 <1>        0.000
     18 H4        -11.0280  -46.9065   31.6618 H          1 <1>        0.000
     19 N1        -13.6930  -42.8810   27.0600 N.ar       1 <1>        0.080
     20 C1        -12.6900  -43.3360   27.8410 C.ar       1 <1>        0.080
     21 C2        -12.9570  -43.8180   29.1260 C.ar       1 <1>        0.070
     22 C3        -14.2730  -43.8200   29.5930 C.ar       1 <1>        0.080
     23 C4        -15.2930  -43.3420   28.7660 C.ar       1 <1>        0.110
     24 C5        -14.9720  -42.8730   27.4890 C.ar       1 <1>        0.090
     25 H1        -11.6745  -43.3250   27.4618 H          1 <1>        0.000
     26 H5        -15.7503  -42.4989   26.8338 H          1 <1>        0.000
     27 C1        -16.7390  -43.3320   29.2510 C.3        1 <1>       -0.230
     28 H2        -16.8210  -43.9268   30.1727 H          1 <1>        0.000
     29 O3        -17.1450  -41.9860   29.5140 O.3        1 <1>        0.850
     30 H4        -17.3890  -43.7660   28.4770 H          1 <1>        0.000
     31 H6        -17.0769  -41.4655   28.7222 H          1 <1>        0.000
     32 C         -14.1220  -43.6540   31.8970 C.cat      1 <1>        0.090
     33 N         -14.5570  -44.2790   30.8300 N.pl3      1 <1>        0.500
     34 N         -13.4000  -42.5660   31.7710 N.pl3      1 <1>        0.520
     35 N1        -14.4080  -44.1150   33.0910 N.pl3      1 <1>        0.110
     36 H2        -15.1246  -45.1344   30.9139 H          1 <1>        0.000
     37 H3        -13.0509  -42.0629   32.5992 H          1 <1>        0.000
     38 H4        -13.1671  -42.1911   30.8403 H          1 <1>        0.000
     39 H5        -14.9739  -44.9678   33.2070 H          1 <1>        0.000
     40 H6        -14.0729  -43.6348   33.9383 H          1 <1>        0.000
     41 C1         -9.3020  -46.6500   29.1690 C.3        1 <1>        0.120
     42 O2         -8.4480  -46.7230   30.3130 O.3        1 <1>        0.200
     43 H1         -9.0220  -45.7799   28.5570 H          1 <1>        0.000
     44 H2        -10.3469  -46.5470   29.4970 H          1 <1>        0.000
     45 H3         -9.1950  -47.5678   28.5721 H          1 <1>        0.000
@<TRIPOS>BOND
     1    3    2 ar 
     2    3    4 ar 
     3    2    6 ar 
     4    4    1 ar 
     5    6    7 1  
     6    6    5 ar 
     7    1    5 ar 
     8    1    8 1  
     9    5    9 1  
    10   10   11 1  
    11   10   12 1  
    12    2   10 1  
    13   13   14 2  
    14   13   15 am 
    15   13   16 am 
    16   15   17 1  
    17   16   18 1  
    18    4   16 1  
    19   19   20 ar 
    20   19   24 ar 
    21   20   21 ar 
    22   21   22 ar 
    23   22   23 ar 
    24   23   24 ar 
    25   20   25 1  
    26   24   26 1  
    27   15   21 1  
    28   27   28 1  
    29   27   29 1  
    30   27   30 1  
    31   29   31 1  
    32   23   27 1  
    33   32   33 ar 
    34   32   34 ar 
    35   32   35 ar 
    36   33   36 1  
    37   34   37 1  
    38   34   38 1  
    39   35   39 1  
    40   35   40 1  
    41   22   33 1  
    42   42   41 1  
    43   41   43 1  
    44   41   44 1  
    45   41   45 1  
    46    3   42 1  
# Name:          No_7_81
# Creation time: Thu Mar 21 11:01:05 2024


@<TRIPOS>MOLECULE
000001_000007
   45    46     1     1     1
SMALL
USER_CHARGES


@<TRIPOS>ATOM
      1 C17        -9.9380  -44.0780   32.3390 C.ar       1 <1>        0.210
      2 C20        -7.4650  -44.7920   31.3410 C.ar       1 <1>        0.110
      3 C21        -8.5840  -45.5640   31.0680 C.ar       1 <1>        0.230
      4 C16        -9.8330  -45.1980   31.5350 C.ar       1 <1>        0.100
      5 C18        -8.8360  -43.2880   32.6200 C.ar       1 <1>        0.060
      6 C19        -7.6280  -43.6740   32.1130 C.ar       1 <1>        0.100
      7 H          -6.7601  -43.0640   32.3360 H          1 <1>        0.000
      8 H         -10.9020  -43.8130   32.7580 H          1 <1>        0.000
      9 H          -8.4780  -46.4683   30.4798 H          1 <1>        0.000
     10 N1         -6.2510  -45.1330   30.8600 N.pl3      1 <1>        0.560
     11 H2         -6.1450  -45.9777   30.2802 H          1 <1>        0.000
     12 H3         -5.4297  -44.5488   31.0721 H          1 <1>        0.000
     13 C1        -11.9800  -45.5360   30.4820 C.2        1 <1>        0.090
     14 O1        -12.9540  -46.2410   30.2630 O.2        1 <1>        0.400
     15 N1        -11.9050  -44.2970   29.9440 N.am       1 <1>        0.050
     16 N2        -10.9740  -45.9910   31.2630 N.am       1 <1>        0.420
     17 H1        -11.1175  -43.7034   30.1099 H          1 <1>        0.000
     18 H4        -11.0280  -46.9065   31.6618 H          1 <1>        0.000
     19 N1        -13.6930  -42.8810   27.0600 N.ar       1 <1>        0.080
     20 C1        -12.6900  -43.3360   27.8410 C.ar       1 <1>        0.080
     21 C2        -12.9570  -43.8180   29.1260 C.ar       1 <1>        0.070
     22 C3        -14.2730  -43.8200   29.5930 C.ar       1 <1>        0.080
     23 C4        -15.2930  -43.3420   28.7660 C.ar       1 <1>        0.110
     24 C5        -14.9720  -42.8730   27.4890 C.ar       1 <1>        0.090
     25 H1        -11.6745  -43.3250   27.4618 H          1 <1>        0.000
     26 H5        -15.7503  -42.4989   26.8338 H          1 <1>        0.000
     27 C1        -16.7390  -43.3320   29.2510 C.3        1 <1>       -0.230
     28 H2        -16.8210  -43.9268   30.1727 H          1 <1>        0.000
     29 O3        -17.1450  -41.9860   29.5140 O.3        1 <1>        0.850
     30 H4        -17.3890  -43.7660   28.4770 H          1 <1>        0.000
     31 H6        -17.0769  -41.4655   28.7222 H          1 <1>        0.000
     32 C         -14.1220  -43.6540   31.8970 C.cat      1 <1>        0.090
     33 N         -14.5570  -44.2790   30.8300 N.pl3      1 <1>        0.500
     34 N         -13.4000  -42.5660   31.7710 N.pl3      1 <1>        0.520
     35 N1        -14.4080  -44.1150   33.0910 N.pl3      1 <1>        0.110
     36 H2        -15.1246  -45.1344   30.9139 H          1 <1>        0.000
     37 H3        -13.0509  -42.0629   32.5992 H          1 <1>        0.000
     38 H4        -13.1671  -42.1911   30.8403 H          1 <1>        0.000
     39 H5        -14.9739  -44.9678   33.2070 H          1 <1>        0.000
     40 H6        -14.0729  -43.6348   33.9383 H          1 <1>        0.000
     41 C1         -8.3640  -42.3640   34.6750 C.3        1 <1>        0.060
     42 O2         -8.9550  -42.1390   33.3930 O.3        1 <1>        0.200
     43 H1         -7.2997  -42.6121   34.5500 H          1 <1>        0.000
     44 H2         -8.8778  -43.1977   35.1758 H          1 <1>        0.000
     45 H3         -8.4580  -41.4549   35.2871 H          1 <1>        0.000
@<TRIPOS>BOND
     1    3    2 ar 
     2    3    4 ar 
     3    2    6 ar 
     4    4    1 ar 
     5    6    7 1  
     6    6    5 ar 
     7    1    5 ar 
     8    1    8 1  
     9    3    9 1  
    10   10   11 1  
    11   10   12 1  
    12    2   10 1  
    13   13   14 2  
    14   13   15 am 
    15   13   16 am 
    16   15   17 1  
    17   16   18 1  
    18    4   16 1  
    19   19   20 ar 
    20   19   24 ar 
    21   20   21 ar 
    22   21   22 ar 
    23   22   23 ar 
    24   23   24 ar 
    25   20   25 1  
    26   24   26 1  
    27   15   21 1  
    28   27   28 1  
    29   27   29 1  
    30   27   30 1  
    31   29   31 1  
    32   23   27 1  
    33   32   33 ar 
    34   32   34 ar 
    35   32   35 ar 
    36   33   36 1  
    37   34   37 1  
    38   34   38 1  
    39   35   39 1  
    40   35   40 1  
    41   22   33 1  
    42   42   41 1  
    43   41   43 1  
    44   41   44 1  
    45   41   45 1  
    46    5   42 1  
# Name:          No_7_4
# Creation time: Thu Mar 21 11:01:05 2024


@<TRIPOS>MOLECULE
000001_000008
   48    49     1     1     1
SMALL
USER_CHARGES


@<TRIPOS>ATOM
      1 C17        -9.9380  -44.0780   32.3390 C.ar       1 <1>        0.210
      2 C20        -7.4650  -44.7920   31.3410 C.ar       1 <1>        0.110
      3 C21        -8.5840  -45.5640   31.0680 C.ar       1 <1>        0.230
      4 C16        -9.8330  -45.1980   31.5350 C.ar       1 <1>        0.100
      5 C18        -8.8360  -43.2880   32.6200 C.ar       1 <1>        0.160
      6 C19        -7.6280  -43.6740   32.1130 C.ar       1 <1>        0.100
      7 H          -6.7601  -43.0640   32.3360 H          1 <1>        0.000
      8 H         -10.9020  -43.8130   32.7580 H          1 <1>        0.000
      9 H          -8.4780  -46.4683   30.4798 H          1 <1>        0.000
     10 N1         -6.2510  -45.1330   30.8600 N.pl3      1 <1>        0.560
     11 H2         -6.1450  -45.9777   30.2802 H          1 <1>        0.000
     12 H3         -5.4297  -44.5488   31.0721 H          1 <1>        0.000
     13 C1        -11.9800  -45.5360   30.4820 C.2        1 <1>        0.090
     14 O1        -12.9540  -46.2410   30.2630 O.2        1 <1>        0.400
     15 N1        -11.9050  -44.2970   29.9440 N.am       1 <1>        0.050
     16 N2        -10.9740  -45.9910   31.2630 N.am       1 <1>        0.420
     17 H1        -11.1175  -43.7034   30.1099 H          1 <1>        0.000
     18 H4        -11.0280  -46.9065   31.6618 H          1 <1>        0.000
     19 N1        -13.6930  -42.8810   27.0600 N.ar       1 <1>        0.080
     20 C1        -12.6900  -43.3360   27.8410 C.ar       1 <1>        0.080
     21 C2        -12.9570  -43.8180   29.1260 C.ar       1 <1>        0.070
     22 C3        -14.2730  -43.8200   29.5930 C.ar       1 <1>        0.080
     23 C4        -15.2930  -43.3420   28.7660 C.ar       1 <1>        0.110
     24 C5        -14.9720  -42.8730   27.4890 C.ar       1 <1>        0.090
     25 H1        -11.6745  -43.3250   27.4618 H          1 <1>        0.000
     26 H5        -15.7503  -42.4989   26.8338 H          1 <1>        0.000
     27 C1        -16.7390  -43.3320   29.2510 C.3        1 <1>       -0.230
     28 H2        -16.8210  -43.9268   30.1727 H          1 <1>        0.000
     29 O3        -17.1450  -41.9860   29.5140 O.3        1 <1>        0.850
     30 H4        -17.3890  -43.7660   28.4770 H          1 <1>        0.000
     31 H6        -17.0769  -41.4655   28.7222 H          1 <1>        0.000
     32 C         -14.1220  -43.6540   31.8970 C.cat      1 <1>        0.090
     33 N         -14.5570  -44.2790   30.8300 N.pl3      1 <1>        0.500
     34 N         -13.4000  -42.5660   31.7710 N.pl3      1 <1>        0.520
     35 N1        -14.4080  -44.1150   33.0910 N.pl3      1 <1>        0.110
     36 H2        -15.1246  -45.1344   30.9139 H          1 <1>        0.000
     37 H3        -13.0509  -42.0629   32.5992 H          1 <1>        0.000
     38 H4        -13.1671  -42.1911   30.8403 H          1 <1>        0.000
     39 H5        -14.9739  -44.9678   33.2070 H          1 <1>        0.000
     40 H6        -14.0729  -43.6348   33.9383 H          1 <1>        0.000
     41 O1         -9.1220  -42.4320   34.8410 O.3        1 <1>        0.040
     42 C1         -8.9670  -42.0280   33.4680 C.3        1 <1>        0.030
     43 C2         -9.2560  -41.3200   35.7460 C.3        1 <1>        0.130
     44 H5         -8.0608  -41.4195   33.3321 H          1 <1>        0.000
     45 H6         -9.8428  -41.4612   33.1191 H          1 <1>        0.000
     46 H7         -9.3680  -41.7231   36.7633 H          1 <1>        0.000
     47 H8        -10.1460  -40.7190   35.5080 H          1 <1>        0.000
     48 H9         -8.3636  -40.6774   35.7210 H          1 <1>        0.000
@<TRIPOS>BOND
     1    3    2 ar 
     2    3    4 ar 
     3    2    6 ar 
     4    4    1 ar 
     5    6    7 1  
     6    6    5 ar 
     7    1    5 ar 
     8    1    8 1  
     9    3    9 1  
    10   10   11 1  
    11   10   12 1  
    12    2   10 1  
    13   13   14 2  
    14   13   15 am 
    15   13   16 am 
    16   15   17 1  
    17   16   18 1  
    18    4   16 1  
    19   19   20 ar 
    20   19   24 ar 
    21   20   21 ar 
    22   21   22 ar 
    23   22   23 ar 
    24   23   24 ar 
    25   20   25 1  
    26   24   26 1  
    27   15   21 1  
    28   27   28 1  
    29   27   29 1  
    30   27   30 1  
    31   29   31 1  
    32   23   27 1  
    33   32   33 ar 
    34   32   34 ar 
    35   32   35 ar 
    36   33   36 1  
    37   34   37 1  
    38   34   38 1  
    39   35   39 1  
    40   35   40 1  
    41   22   33 1  
    42   41   42 1  
    43   41   43 1  
    44   42   44 1  
    45   42   45 1  
    46   43   46 1  
    47   43   47 1  
    48   43   48 1  
    49    5   42 1  
# Name:          No_6_130
# Creation time: Thu Mar 21 11:01:05 2024


@<TRIPOS>MOLECULE
000001_000009
   48    49     1     1     1
SMALL
USER_CHARGES


@<TRIPOS>ATOM
      1 C17        -9.9380  -44.0780   32.3390 C.ar       1 <1>        0.210
      2 C20        -7.4650  -44.7920   31.3410 C.ar       1 <1>        0.110
      3 C21        -8.5840  -45.5640   31.0680 C.ar       1 <1>        0.230
      4 C16        -9.8330  -45.1980   31.5350 C.ar       1 <1>        0.100
      5 C18        -8.8360  -43.2880   32.6200 C.ar       1 <1>        0.160
      6 C19        -7.6280  -43.6740   32.1130 C.ar       1 <1>        0.100
      7 H          -6.7601  -43.0640   32.3360 H          1 <1>        0.000
      8 H         -10.9020  -43.8130   32.7580 H          1 <1>        0.000
      9 H          -8.4780  -46.4683   30.4798 H          1 <1>        0.000
     10 N1         -6.2510  -45.1330   30.8600 N.pl3      1 <1>        0.560
     11 H2         -6.1450  -45.9777   30.2802 H          1 <1>        0.000
     12 H3         -5.4297  -44.5488   31.0721 H          1 <1>        0.000
     13 C1        -11.9800  -45.5360   30.4820 C.2        1 <1>        0.090
     14 O1        -12.9540  -46.2410   30.2630 O.2        1 <1>        0.400
     15 N1        -11.9050  -44.2970   29.9440 N.am       1 <1>        0.050
     16 N2        -10.9740  -45.9910   31.2630 N.am       1 <1>        0.420
     17 H1        -11.1175  -43.7034   30.1099 H          1 <1>        0.000
     18 H4        -11.0280  -46.9065   31.6618 H          1 <1>        0.000
     19 N1        -13.6930  -42.8810   27.0600 N.ar       1 <1>        0.080
     20 C1        -12.6900  -43.3360   27.8410 C.ar       1 <1>        0.080
     21 C2        -12.9570  -43.8180   29.1260 C.ar       1 <1>        0.070
     22 C3        -14.2730  -43.8200   29.5930 C.ar       1 <1>        0.080
     23 C4        -15.2930  -43.3420   28.7660 C.ar       1 <1>        0.110
     24 C5        -14.9720  -42.8730   27.4890 C.ar       1 <1>        0.090
     25 H1        -11.6745  -43.3250   27.4618 H          1 <1>        0.000
     26 H5        -15.7503  -42.4989   26.8338 H          1 <1>        0.000
     27 C1        -16.7390  -43.3320   29.2510 C.3        1 <1>       -0.230
     28 H2        -16.8210  -43.9268   30.1727 H          1 <1>        0.000
     29 O3        -17.1450  -41.9860   29.5140 O.3        1 <1>        0.850
     30 H4        -17.3890  -43.7660   28.4770 H          1 <1>        0.000
     31 H6        -17.0769  -41.4655   28.7222 H          1 <1>        0.000
     32 C         -14.1220  -43.6540   31.8970 C.cat      1 <1>        0.090
     33 N         -14.5570  -44.2790   30.8300 N.pl3      1 <1>        0.500
     34 N         -13.4000  -42.5660   31.7710 N.pl3      1 <1>        0.520
     35 N1        -14.4080  -44.1150   33.0910 N.pl3      1 <1>        0.110
     36 H2        -15.1246  -45.1344   30.9139 H          1 <1>        0.000
     37 H3        -13.0509  -42.0629   32.5992 H          1 <1>        0.000
     38 H4        -13.1671  -42.1911   30.8403 H          1 <1>        0.000
     39 H5        -14.9739  -44.9678   33.2070 H          1 <1>        0.000
     40 H6        -14.0729  -43.6348   33.9383 H          1 <1>        0.000
     41 O1         -9.1220  -42.4320   34.8410 O.3        1 <1>        0.040
     42 C1         -8.9670  -42.0280   33.4680 C.3        1 <1>        0.030
     43 C2         -9.2560  -41.3200   35.7460 C.3        1 <1>        0.130
     44 H5         -8.0608  -41.4195   33.3321 H          1 <1>        0.000
     45 H6         -9.8428  -41.4612   33.1191 H          1 <1>        0.000
     46 H7         -9.3680  -41.7231   36.7633 H          1 <1>        0.000
     47 H8        -10.1460  -40.7190   35.5080 H          1 <1>        0.000
     48 H9         -8.3636  -40.6774   35.7210 H          1 <1>        0.000
@<TRIPOS>BOND
     1    3    2 ar 
     2    3    4 ar 
     3    2    6 ar 
     4    4    1 ar 
     5    6    7 1  
     6    6    5 ar 
     7    1    5 ar 
     8    1    8 1  
     9    3    9 1  
    10   10   11 1  
    11   10   12 1  
    12    2   10 1  
    13   13   14 2  
    14   13   15 am 
    15   13   16 am 
    16   15   17 1  
    17   16   18 1  
    18    4   16 1  
    19   19   20 ar 
    20   19   24 ar 
    21   20   21 ar 
    22   21   22 ar 
    23   22   23 ar 
    24   23   24 ar 
    25   20   25 1  
    26   24   26 1  
    27   15   21 1  
    28   27   28 1  
    29   27   29 1  
    30   27   30 1  
    31   29   31 1  
    32   23   27 1  
    33   32   33 ar 
    34   32   34 ar 
    35   32   35 ar 
    36   33   36 1  
    37   34   37 1  
    38   34   38 1  
    39   35   39 1  
    40   35   40 1  
    41   22   33 1  
    42   41   42 1  
    43   41   43 1  
    44   42   44 1  
    45   42   45 1  
    46   43   46 1  
    47   43   47 1  
    48   43   48 1  
    49    5   42 1  
# Name:          No_7_5
# Creation time: Thu Mar 21 11:01:05 2024


@<TRIPOS>MOLECULE
000001_000010
   48    49     1     1     1
SMALL
USER_CHARGES


@<TRIPOS>ATOM
      1 C17        -9.9380  -44.0780   32.3390 C.ar       1 <1>        0.210
      2 C20        -7.4650  -44.7920   31.3410 C.ar       1 <1>        0.110
      3 C21        -8.5840  -45.5640   31.0680 C.ar       1 <1>        0.230
      4 C16        -9.8330  -45.1980   31.5350 C.ar       1 <1>        0.100
      5 C18        -8.8360  -43.2880   32.6200 C.ar       1 <1>        0.160
      6 C19        -7.6280  -43.6740   32.1130 C.ar       1 <1>        0.100
      7 H          -6.7601  -43.0640   32.3360 H          1 <1>        0.000
      8 H         -10.9020  -43.8130   32.7580 H          1 <1>        0.000
      9 H          -8.4780  -46.4683   30.4798 H          1 <1>        0.000
     10 N1         -6.2510  -45.1330   30.8600 N.pl3      1 <1>        0.560
     11 H2         -6.1450  -45.9777   30.2802 H          1 <1>        0.000
     12 H3         -5.4297  -44.5488   31.0721 H          1 <1>        0.000
     13 C1        -11.9800  -45.5360   30.4820 C.2        1 <1>        0.090
     14 O1        -12.9540  -46.2410   30.2630 O.2        1 <1>        0.400
     15 N1        -11.9050  -44.2970   29.9440 N.am       1 <1>        0.050
     16 N2        -10.9740  -45.9910   31.2630 N.am       1 <1>        0.420
     17 H1        -11.1175  -43.7034   30.1099 H          1 <1>        0.000
     18 H4        -11.0280  -46.9065   31.6618 H          1 <1>        0.000
     19 N1        -13.6930  -42.8810   27.0600 N.ar       1 <1>        0.080
     20 C1        -12.6900  -43.3360   27.8410 C.ar       1 <1>        0.080
     21 C2        -12.9570  -43.8180   29.1260 C.ar       1 <1>        0.070
     22 C3        -14.2730  -43.8200   29.5930 C.ar       1 <1>        0.080
     23 C4        -15.2930  -43.3420   28.7660 C.ar       1 <1>        0.110
     24 C5        -14.9720  -42.8730   27.4890 C.ar       1 <1>        0.090
     25 H1        -11.6745  -43.3250   27.4618 H          1 <1>        0.000
     26 H5        -15.7503  -42.4989   26.8338 H          1 <1>        0.000
     27 C1        -16.7390  -43.3320   29.2510 C.3        1 <1>       -0.230
     28 H2        -16.8210  -43.9268   30.1727 H          1 <1>        0.000
     29 O3        -17.1450  -41.9860   29.5140 O.3        1 <1>        0.850
     30 H4        -17.3890  -43.7660   28.4770 H          1 <1>        0.000
     31 H6        -17.0769  -41.4655   28.7222 H          1 <1>        0.000
     32 C         -14.1220  -43.6540   31.8970 C.cat      1 <1>        0.090
     33 N         -14.5570  -44.2790   30.8300 N.pl3      1 <1>        0.500
     34 N         -13.4000  -42.5660   31.7710 N.pl3      1 <1>        0.520
     35 N1        -14.4080  -44.1150   33.0910 N.pl3      1 <1>        0.110
     36 H2        -15.1246  -45.1344   30.9139 H          1 <1>        0.000
     37 H3        -13.0509  -42.0629   32.5992 H          1 <1>        0.000
     38 H4        -13.1671  -42.1911   30.8403 H          1 <1>        0.000
     39 H5        -14.9739  -44.9678   33.2070 H          1 <1>        0.000
     40 H6        -14.0729  -43.6348   33.9383 H          1 <1>        0.000
     41 O1         -9.8990  -42.3040   34.5310 O.3        1 <1>        0.060
     42 C1         -8.9670  -42.0280   33.4680 C.3        1 <1>        0.030
     43 C2        -10.1070  -41.1790   35.4050 C.3        1 <1>        0.130
     44 H5         -7.9744  -41.7701   33.8658 H          1 <1>        0.000
     45 H6         -9.3269  -41.2103   32.8262 H          1 <1>        0.000
     46 H7        -10.8272  -41.4821   36.1792 H          1 <1>        0.000
     47 H8        -10.5224  -40.3201   34.8575 H          1 <1>        0.000
     48 H9         -9.1705  -40.8802   35.8987 H          1 <1>        0.000
@<TRIPOS>BOND
     1    3    2 ar 
     2    3    4 ar 
     3    2    6 ar 
     4    4    1 ar 
     5    6    7 1  
     6    6    5 ar 
     7    1    5 ar 
     8    1    8 1  
     9    3    9 1  
    10   10   11 1  
    11   10   12 1  
    12    2   10 1  
    13   13   14 2  
    14   13   15 am 
    15   13   16 am 
    16   15   17 1  
    17   16   18 1  
    18    4   16 1  
    19   19   20 ar 
    20   19   24 ar 
    21   20   21 ar 
    22   21   22 ar 
    23   22   23 ar 
    24   23   24 ar 
    25   20   25 1  
    26   24   26 1  
    27   15   21 1  
    28   27   28 1  
    29   27   29 1  
    30   27   30 1  
    31   29   31 1  
    32   23   27 1  
    33   32   33 ar 
    34   32   34 ar 
    35   32   35 ar 
    36   33   36 1  
    37   34   37 1  
    38   34   38 1  
    39   35   39 1  
    40   35   40 1  
    41   22   33 1  
    42   41   42 1  
    43   41   43 1  
    44   42   44 1  
    45   42   45 1  
    46   43   46 1  
    47   43   47 1  
    48   43   48 1  
    49    5   42 1  
# Name:          No_6_128
# Creation time: Thu Mar 21 11:01:05 2024


@<TRIPOS>MOLECULE
000001_000011
   48    49     1     1     1
SMALL
USER_CHARGES


@<TRIPOS>ATOM
      1 C17        -9.9380  -44.0780   32.3390 C.ar       1 <1>        0.210
      2 C20        -7.4650  -44.7920   31.3410 C.ar       1 <1>        0.110
      3 C21        -8.5840  -45.5640   31.0680 C.ar       1 <1>        0.230
      4 C16        -9.8330  -45.1980   31.5350 C.ar       1 <1>        0.100
      5 C18        -8.8360  -43.2880   32.6200 C.ar       1 <1>        0.160
      6 C19        -7.6280  -43.6740   32.1130 C.ar       1 <1>        0.100
      7 H          -6.7601  -43.0640   32.3360 H          1 <1>        0.000
      8 H         -10.9020  -43.8130   32.7580 H          1 <1>        0.000
      9 H          -8.4780  -46.4683   30.4798 H          1 <1>        0.000
     10 N1         -6.2510  -45.1330   30.8600 N.pl3      1 <1>        0.560
     11 H2         -6.1450  -45.9777   30.2802 H          1 <1>        0.000
     12 H3         -5.4297  -44.5488   31.0721 H          1 <1>        0.000
     13 C1        -11.9800  -45.5360   30.4820 C.2        1 <1>        0.090
     14 O1        -12.9540  -46.2410   30.2630 O.2        1 <1>        0.400
     15 N1        -11.9050  -44.2970   29.9440 N.am       1 <1>        0.050
     16 N2        -10.9740  -45.9910   31.2630 N.am       1 <1>        0.420
     17 H1        -11.1175  -43.7034   30.1099 H          1 <1>        0.000
     18 H4        -11.0280  -46.9065   31.6618 H          1 <1>        0.000
     19 N1        -13.6930  -42.8810   27.0600 N.ar       1 <1>        0.080
     20 C1        -12.6900  -43.3360   27.8410 C.ar       1 <1>        0.080
     21 C2        -12.9570  -43.8180   29.1260 C.ar       1 <1>        0.070
     22 C3        -14.2730  -43.8200   29.5930 C.ar       1 <1>        0.080
     23 C4        -15.2930  -43.3420   28.7660 C.ar       1 <1>        0.110
     24 C5        -14.9720  -42.8730   27.4890 C.ar       1 <1>        0.090
     25 H1        -11.6745  -43.3250   27.4618 H          1 <1>        0.000
     26 H5        -15.7503  -42.4989   26.8338 H          1 <1>        0.000
     27 C1        -16.7390  -43.3320   29.2510 C.3        1 <1>       -0.230
     28 H2        -16.8210  -43.9268   30.1727 H          1 <1>        0.000
     29 O3        -17.1450  -41.9860   29.5140 O.3        1 <1>        0.850
     30 H4        -17.3890  -43.7660   28.4770 H          1 <1>        0.000
     31 H6        -17.0769  -41.4655   28.7222 H          1 <1>        0.000
     32 C         -14.1220  -43.6540   31.8970 C.cat      1 <1>        0.090
     33 N         -14.5570  -44.2790   30.8300 N.pl3      1 <1>        0.500
     34 N         -13.4000  -42.5660   31.7710 N.pl3      1 <1>        0.520
     35 N1        -14.4080  -44.1150   33.0910 N.pl3      1 <1>        0.110
     36 H2        -15.1246  -45.1344   30.9139 H          1 <1>        0.000
     37 H3        -13.0509  -42.0629   32.5992 H          1 <1>        0.000
     38 H4        -13.1671  -42.1911   30.8403 H          1 <1>        0.000
     39 H5        -14.9739  -44.9678   33.2070 H          1 <1>        0.000
     40 H6        -14.0729  -43.6348   33.9383 H          1 <1>        0.000
     41 O1         -9.8990  -42.3040   34.5310 O.3        1 <1>        0.060
     42 C1         -8.9670  -42.0280   33.4680 C.3        1 <1>        0.030
     43 C2        -10.1070  -41.1790   35.4050 C.3        1 <1>        0.130
     44 H5         -7.9744  -41.7701   33.8658 H          1 <1>        0.000
     45 H6         -9.3269  -41.2103   32.8262 H          1 <1>        0.000
     46 H7        -10.8272  -41.4821   36.1792 H          1 <1>        0.000
     47 H8        -10.5224  -40.3201   34.8575 H          1 <1>        0.000
     48 H9         -9.1705  -40.8802   35.8987 H          1 <1>        0.000
@<TRIPOS>BOND
     1    3    2 ar 
     2    3    4 ar 
     3    2    6 ar 
     4    4    1 ar 
     5    6    7 1  
     6    6    5 ar 
     7    1    5 ar 
     8    1    8 1  
     9    3    9 1  
    10   10   11 1  
    11   10   12 1  
    12    2   10 1  
    13   13   14 2  
    14   13   15 am 
    15   13   16 am 
    16   15   17 1  
    17   16   18 1  
    18    4   16 1  
    19   19   20 ar 
    20   19   24 ar 
    21   20   21 ar 
    22   21   22 ar 
    23   22   23 ar 
    24   23   24 ar 
    25   20   25 1  
    26   24   26 1  
    27   15   21 1  
    28   27   28 1  
    29   27   29 1  
    30   27   30 1  
    31   29   31 1  
    32   23   27 1  
    33   32   33 ar 
    34   32   34 ar 
    35   32   35 ar 
    36   33   36 1  
    37   34   37 1  
    38   34   38 1  
    39   35   39 1  
    40   35   40 1  
    41   22   33 1  
    42   41   42 1  
    43   41   43 1  
    44   42   44 1  
    45   42   45 1  
    46   43   46 1  
    47   43   47 1  
    48   43   48 1  
    49    5   42 1  
# Name:          No_7_67
# Creation time: Thu Mar 21 11:29:57 2024


@<TRIPOS>MOLECULE
000001_000001
   56    58     1     1     1
SMALL
USER_CHARGES


@<TRIPOS>ATOM
      1 C17        -9.9380  -44.0780   32.3390 C.ar       1 <1>        0.210
      2 C20        -7.4650  -44.7920   31.3410 C.ar       1 <1>        0.110
      3 C21        -8.5840  -45.5640   31.0680 C.ar       1 <1>        0.180
      4 C16        -9.8330  -45.1980   31.5350 C.ar       1 <1>        0.170
      5 C18        -8.8360  -43.2880   32.6200 C.ar       1 <1>        0.210
      6 C19        -7.6280  -43.6740   32.1130 C.ar       1 <1>        0.060
      7 H         -10.9020  -43.8130   32.7580 H          1 <1>        0.000
      8 H          -6.4902  -45.0660   30.9541 H          1 <1>        0.000
      9 H          -8.9290  -42.3920   33.2230 H          1 <1>        0.000
     10 N1         -5.7570  -43.2770   33.6730 N.4        1 <1>        0.970
     11 C1         -6.4070  -42.8150   32.4270 C.3        1 <1>        0.060
     12 H2         -4.9479  -42.7179   33.8940 H          1 <1>        0.000
     13 H3         -6.3870  -43.2220   34.4580 H          1 <1>        0.000
     14 H6         -5.7077  -42.8820   31.5806 H          1 <1>        0.000
     15 H7         -6.7332  -41.7694   32.5281 H          1 <1>        0.000
     16 H1         -5.4521  -44.2347   33.5960 H          1 <1>        0.000
     17 C1        -11.0620  -46.0530   31.2420 C.3        1 <1>        0.000
     18 C2        -11.9370  -45.3470   30.2340 C.2        1 <1>        0.010
     19 C3        -12.5070  -43.9850   30.5500 C.3        1 <1>        0.020
     20 O4        -12.1810  -45.8740   29.1720 O.2        1 <1>        0.080
     21 H5        -11.6279  -46.2110   32.1719 H          1 <1>        0.000
     22 H7        -10.7437  -47.0248   30.8367 H          1 <1>        0.000
     23 H8        -11.6848  -43.2768   30.7300 H          1 <1>        0.000
     24 O1        -14.7440  -43.5910   33.5200 O.3        1 <1>        0.250
     25 C1        -14.4600  -44.9060   33.5840 C.2        1 <1>        0.120
     26 N1        -13.6940  -45.1870   32.6180 N.2        1 <1>        0.110
     27 C2        -13.3670  -44.0750   31.7760 C.2        1 <1>        0.040
     28 C3        -14.0730  -43.1540   32.4340 C.2        1 <1>        0.100
     29 H1        -14.8261  -45.6042   34.3352 H          1 <1>        0.000
     30 H3        -14.1080  -42.1119   32.1197 H          1 <1>        0.000
     31 C1         -8.4350  -46.8360   30.2400 C.3        1 <1>       -0.040
     32 O3         -8.5940  -47.9770   31.0870 O.3        1 <1>        0.510
     33 H4         -7.4366  -46.8580   29.7788 H          1 <1>        0.000
     34 H5         -9.2032  -46.8530   29.4528 H          1 <1>        0.000
     35 H6         -8.5030  -48.7747   30.5792 H          1 <1>        0.000
     36 C1        -13.3550  -43.4960   29.3620 C.3        1 <1>        0.090
     37 C2        -12.4270  -43.0450   28.2190 C.3        1 <1>       -0.010
     38 H1        -13.9799  -42.6492   29.6819 H          1 <1>        0.000
     39 H3        -14.0003  -44.3143   29.0099 H          1 <1>        0.000
     40 H4        -11.7822  -42.2262   28.5709 H          1 <1>        0.000
     41 H6        -11.8017  -43.8914   27.8988 H          1 <1>        0.000
     42 C1        -13.6270  -43.5790   26.3160 C.2        1 <1>        0.060
     43 O1        -13.3460  -44.7490   26.5260 O.2        1 <1>        0.100
     44 O2        -13.2150  -42.5900   27.1160 O.3        1 <1>        0.340
     45 C         -15.8940  -41.6900   23.9250 C.ar       1 <1>        0.220
     46 C         -16.0250  -42.6080   22.8840 C.ar       1 <1>        0.100
     47 C         -15.3780  -43.8410   22.9560 C.ar       1 <1>        0.130
     48 C         -14.6000  -44.1560   24.0690 C.ar       1 <1>        0.240
     49 C         -14.4690  -43.2380   25.1100 C.ar       1 <1>        0.210
     50 C         -15.1160  -42.0050   25.0380 C.ar       1 <1>        0.220
     51 O7        -17.0270  -42.4450   21.9350 O.3        1 <1>        0.540
     52 H1        -16.3972  -40.7316   23.8680 H          1 <1>        0.000
     53 H2        -15.4790  -44.5547   22.1464 H          1 <1>        0.000
     54 H3        -14.0968  -45.1145   24.1250 H          1 <1>        0.000
     55 H5        -15.0150  -41.2908   25.8472 H          1 <1>        0.000
     56 H6        -17.3800  -41.5651   21.9950 H          1 <1>        0.000
@<TRIPOS>BOND
     1    3    2 ar 
     2    3    4 ar 
     3    2    6 ar 
     4    4    1 ar 
     5    6    5 ar 
     6    1    5 ar 
     7    1    7 1  
     8    2    8 1  
     9    5    9 1  
    10   10   11 1  
    11   10   12 1  
    12   10   13 1  
    13   11   14 1  
    14   11   15 1  
    15   10   16 1  
    16    6   11 1  
    17   18   17 1  
    18   18   19 1  
    19   18   20 2  
    20   17   21 1  
    21   17   22 1  
    22   19   23 1  
    23    4   17 1  
    24   24   25 1  
    25   24   28 1  
    26   25   26 2  
    27   26   27 1  
    28   27   28 2  
    29   25   29 1  
    30   28   30 1  
    31   19   27 1  
    32   31   32 1  
    33   31   33 1  
    34   31   34 1  
    35   32   35 1  
    36    3   31 1  
    37   37   36 1  
    38   36   38 1  
    39   36   39 1  
    40   37   40 1  
    41   37   41 1  
    42   19   36 1  
    43   42   43 2  
    44   42   44 1  
    45   37   44 1  
    46   45   46 ar 
    47   45   50 ar 
    48   50   49 ar 
    49   49   48 ar 
    50   48   47 ar 
    51   47   46 ar 
    52   46   51 1  
    53   45   52 1  
    54   47   53 1  
    55   48   54 1  
    56   50   55 1  
    57   51   56 1  
    58   42   49 1  
# Name:          No_6_1
# Creation time: Thu Mar 21 11:29:57 2024


@<TRIPOS>MOLECULE
000002_000001
   50    52     1     1     1
SMALL
USER_CHARGES


@<TRIPOS>ATOM
      1 C17        -9.9380  -44.0780   32.3390 C.ar       1 <1>        0.210
      2 C20        -7.4650  -44.7920   31.3410 C.ar       1 <1>        0.110
      3 C21        -8.5840  -45.5640   31.0680 C.ar       1 <1>        0.230
      4 C16        -9.8330  -45.1980   31.5350 C.ar       1 <1>        0.170
      5 C18        -8.8360  -43.2880   32.6200 C.ar       1 <1>        0.210
      6 C19        -7.6280  -43.6740   32.1130 C.ar       1 <1>        0.060
      7 H         -10.9020  -43.8130   32.7580 H          1 <1>        0.000
      8 H          -8.4780  -46.4683   30.4798 H          1 <1>        0.000
      9 H          -8.9290  -42.3920   33.2230 H          1 <1>        0.000
     10 N1         -5.7570  -43.2770   33.6730 N.4        1 <1>        0.970
     11 C1         -6.4070  -42.8150   32.4270 C.3        1 <1>        0.060
     12 H2         -4.9479  -42.7179   33.8940 H          1 <1>        0.000
     13 H3         -6.3870  -43.2220   34.4580 H          1 <1>        0.000
     14 H6         -5.7077  -42.8820   31.5806 H          1 <1>        0.000
     15 H7         -6.7332  -41.7694   32.5281 H          1 <1>        0.000
     16 H1         -5.4521  -44.2347   33.5960 H          1 <1>        0.000
     17 C1        -11.0620  -46.0530   31.2420 C.3        1 <1>        0.000
     18 C2        -11.9370  -45.3470   30.2340 C.2        1 <1>        0.010
     19 C3        -12.5070  -43.9850   30.5500 C.3        1 <1>        0.020
     20 O4        -12.1810  -45.8740   29.1720 O.2        1 <1>        0.080
     21 H5        -11.6279  -46.2110   32.1719 H          1 <1>        0.000
     22 H7        -10.7437  -47.0248   30.8367 H          1 <1>        0.000
     23 H8        -11.6848  -43.2768   30.7300 H          1 <1>        0.000
     24 C1        -13.3340  -43.5080   29.3920 C.2        1 <1>        0.000
     25 O1        -12.7670  -43.3840   28.3180 O.2        1 <1>        0.050
     26 N1        -14.6440  -43.2360   29.5650 N.am       1 <1>       -0.120
     27 H2        -15.0710  -43.3510   30.4619 H          1 <1>        0.000
     28 N1        -14.0420  -45.1130   32.1600 N.pl3      1 <1>        0.300
     29 C1        -13.3670  -44.0750   31.7760 C.2        1 <1>        0.040
     30 N2        -13.5440  -43.1430   32.5960 N.2        1 <1>        0.080
     31 C2        -14.4250  -43.5730   33.6490 C.2        1 <1>        0.120
     32 C3        -14.6830  -44.8430   33.2750 C.2        1 <1>        0.130
     33 H1        -14.0710  -46.0158   31.6651 H          1 <1>        0.000
     34 H3        -14.7839  -43.0182   34.5147 H          1 <1>        0.000
     35 H4        -15.3261  -45.5331   33.8191 H          1 <1>        0.000
     36 O1         -6.2150  -45.1430   30.8450 O.3        1 <1>        0.560
     37 H1         -5.5998  -44.7729   31.4672 H          1 <1>        0.000
     38 C1        -15.3890  -42.8080   28.5290 C.2        1 <1>       -0.080
     39 C2        -15.0070  -43.1860   27.1180 C.ar       1 <1>        0.200
     40 C3        -14.3700  -44.4060   26.8690 C.ar       1 <1>        0.180
     41 C4        -14.0170  -44.7560   25.5620 C.ar       1 <1>        0.210
     42 C5        -14.2990  -43.8860   24.5050 C.ar       1 <1>        0.250
     43 C6        -14.9350  -42.6660   24.7540 C.ar       1 <1>        0.220
     44 C7        -15.2890  -42.3160   26.0610 C.ar       1 <1>        0.210
     45 O8        -16.3720  -42.1150   28.7300 O.2        1 <1>        0.540
     46 H2        -14.1510  -45.0801   27.6891 H          1 <1>        0.000
     47 H3        -13.5228  -45.7013   25.3689 H          1 <1>        0.000
     48 H4        -14.0250  -44.1570   23.4918 H          1 <1>        0.000
     49 H5        -15.1539  -41.9913   23.9343 H          1 <1>        0.000
     50 H6        -15.7820  -41.3701   26.2540 H          1 <1>        0.000
@<TRIPOS>BOND
     1    3    2 ar 
     2    3    4 ar 
     3    2    6 ar 
     4    4    1 ar 
     5    6    5 ar 
     6    1    5 ar 
     7    1    7 1  
     8    3    8 1  
     9    5    9 1  
    10   10   11 1  
    11   10   12 1  
    12   10   13 1  
    13   11   14 1  
    14   11   15 1  
    15   10   16 1  
    16    6   11 1  
    17   18   17 1  
    18   18   19 1  
    19   18   20 2  
    20   17   21 1  
    21   17   22 1  
    22   19   23 1  
    23    4   17 1  
    24   24   25 2  
    25   24   26 am 
    26   26   27 1  
    27   19   24 1  
    28   28   29 1  
    29   28   32 1  
    30   29   30 2  
    31   30   31 1  
    32   31   32 2  
    33   28   33 1  
    34   31   34 1  
    35   32   35 1  
    36   19   29 1  
    37   36   37 1  
    38    2   36 1  
    39   38   39 1  
    40   39   40 ar 
    41   39   44 ar 
    42   44   43 ar 
    43   43   42 ar 
    44   42   41 ar 
    45   41   40 ar 
    46   38   45 2  
    47   40   46 1  
    48   41   47 1  
    49   42   48 1  
    50   43   49 1  
    51   44   50 1  
    52   26   38 am 
# Name:          No_7_5
# Creation time: Thu Mar 21 11:29:57 2024


@<TRIPOS>MOLECULE
000002_000002
   50    52     1     1     1
SMALL
USER_CHARGES


@<TRIPOS>ATOM
      1 C17        -9.9380  -44.0780   32.3390 C.ar       1 <1>        0.210
      2 C20        -7.4650  -44.7920   31.3410 C.ar       1 <1>        0.110
      3 C21        -8.5840  -45.5640   31.0680 C.ar       1 <1>        0.230
      4 C16        -9.8330  -45.1980   31.5350 C.ar       1 <1>        0.170
      5 C18        -8.8360  -43.2880   32.6200 C.ar       1 <1>        0.210
      6 C19        -7.6280  -43.6740   32.1130 C.ar       1 <1>        0.060
      7 H         -10.9020  -43.8130   32.7580 H          1 <1>        0.000
      8 H          -8.4780  -46.4683   30.4798 H          1 <1>        0.000
      9 H          -8.9290  -42.3920   33.2230 H          1 <1>        0.000
     10 N1         -5.7570  -43.2770   33.6730 N.4        1 <1>        0.970
     11 C1         -6.4070  -42.8150   32.4270 C.3        1 <1>        0.060
     12 H2         -4.9479  -42.7179   33.8940 H          1 <1>        0.000
     13 H3         -6.3870  -43.2220   34.4580 H          1 <1>        0.000
     14 H6         -5.7077  -42.8820   31.5806 H          1 <1>        0.000
     15 H7         -6.7332  -41.7694   32.5281 H          1 <1>        0.000
     16 H1         -5.4521  -44.2347   33.5960 H          1 <1>        0.000
     17 C1        -11.0620  -46.0530   31.2420 C.3        1 <1>        0.000
     18 C2        -11.9370  -45.3470   30.2340 C.2        1 <1>        0.010
     19 C3        -12.5070  -43.9850   30.5500 C.3        1 <1>        0.020
     20 O4        -12.1810  -45.8740   29.1720 O.2        1 <1>        0.080
     21 H5        -11.6279  -46.2110   32.1719 H          1 <1>        0.000
     22 H7        -10.7437  -47.0248   30.8367 H          1 <1>        0.000
     23 H8        -11.6848  -43.2768   30.7300 H          1 <1>        0.000
     24 C1        -13.3340  -43.5080   29.3920 C.2        1 <1>        0.000
     25 O1        -12.7670  -43.3840   28.3180 O.2        1 <1>        0.050
     26 N1        -14.6440  -43.2360   29.5650 N.am       1 <1>       -0.120
     27 H2        -15.0710  -43.3510   30.4619 H          1 <1>        0.000
     28 N1        -14.0420  -45.1130   32.1600 N.pl3      1 <1>        0.300
     29 C1        -13.3670  -44.0750   31.7760 C.2        1 <1>        0.040
     30 N2        -13.5440  -43.1430   32.5960 N.2        1 <1>        0.080
     31 C2        -14.4250  -43.5730   33.6490 C.2        1 <1>        0.120
     32 C3        -14.6830  -44.8430   33.2750 C.2        1 <1>        0.130
     33 H1        -14.0710  -46.0158   31.6651 H          1 <1>        0.000
     34 H3        -14.7839  -43.0182   34.5147 H          1 <1>        0.000
     35 H4        -15.3261  -45.5331   33.8191 H          1 <1>        0.000
     36 O1         -6.2150  -45.1430   30.8450 O.3        1 <1>        0.560
     37 H1         -5.5998  -44.7729   31.4672 H          1 <1>        0.000
     38 C1        -15.3890  -42.8080   28.5290 C.2        1 <1>       -0.080
     39 C2        -15.0070  -43.1860   27.1180 C.ar       1 <1>        0.200
     40 C3        -14.3700  -44.4060   26.8690 C.ar       1 <1>        0.180
     41 C4        -14.0170  -44.7560   25.5620 C.ar       1 <1>        0.210
     42 C5        -14.2990  -43.8860   24.5050 C.ar       1 <1>        0.250
     43 C6        -14.9350  -42.6660   24.7540 C.ar       1 <1>        0.220
     44 C7        -15.2890  -42.3160   26.0610 C.ar       1 <1>        0.210
     45 O8        -16.3720  -42.1150   28.7300 O.2        1 <1>        0.540
     46 H2        -14.1510  -45.0801   27.6891 H          1 <1>        0.000
     47 H3        -13.5228  -45.7013   25.3689 H          1 <1>        0.000
     48 H4        -14.0250  -44.1570   23.4918 H          1 <1>        0.000
     49 H5        -15.1539  -41.9913   23.9343 H          1 <1>        0.000
     50 H6        -15.7820  -41.3701   26.2540 H          1 <1>        0.000
@<TRIPOS>BOND
     1    3    2 ar 
     2    3    4 ar 
     3    2    6 ar 
     4    4    1 ar 
     5    6    5 ar 
     6    1    5 ar 
     7    1    7 1  
     8    3    8 1  
     9    5    9 1  
    10   10   11 1  
    11   10   12 1  
    12   10   13 1  
    13   11   14 1  
    14   11   15 1  
    15   10   16 1  
    16    6   11 1  
    17   18   17 1  
    18   18   19 1  
    19   18   20 2  
    20   17   21 1  
    21   17   22 1  
    22   19   23 1  
    23    4   17 1  
    24   24   25 2  
    25   24   26 am 
    26   26   27 1  
    27   19   24 1  
    28   28   29 1  
    29   28   32 1  
    30   29   30 2  
    31   30   31 1  
    32   31   32 2  
    33   28   33 1  
    34   31   34 1  
    35   32   35 1  
    36   19   29 1  
    37   36   37 1  
    38    2   36 1  
    39   38   39 1  
    40   39   40 ar 
    41   39   44 ar 
    42   44   43 ar 
    43   43   42 ar 
    44   42   41 ar 
    45   41   40 ar 
    46   38   45 2  
    47   40   46 1  
    48   41   47 1  
    49   42   48 1  
    50   43   49 1  
    51   44   50 1  
    52   26   38 am 
# Name:          No_5_40
# Creation time: Thu Mar 21 11:29:57 2024


@<TRIPOS>MOLECULE
000002_000003
   50    52     1     1     1
SMALL
USER_CHARGES


@<TRIPOS>ATOM
      1 C17        -9.9380  -44.0780   32.3390 C.ar       1 <1>        0.210
      2 C20        -7.4650  -44.7920   31.3410 C.ar       1 <1>        0.110
      3 C21        -8.5840  -45.5640   31.0680 C.ar       1 <1>        0.230
      4 C16        -9.8330  -45.1980   31.5350 C.ar       1 <1>        0.170
      5 C18        -8.8360  -43.2880   32.6200 C.ar       1 <1>        0.210
      6 C19        -7.6280  -43.6740   32.1130 C.ar       1 <1>        0.060
      7 H         -10.9020  -43.8130   32.7580 H          1 <1>        0.000
      8 H          -8.4780  -46.4683   30.4798 H          1 <1>        0.000
      9 H          -8.9290  -42.3920   33.2230 H          1 <1>        0.000
     10 N1         -5.7570  -43.2770   33.6730 N.4        1 <1>        0.970
     11 C1         -6.4070  -42.8150   32.4270 C.3        1 <1>        0.060
     12 H2         -4.9479  -42.7179   33.8940 H          1 <1>        0.000
     13 H3         -6.3870  -43.2220   34.4580 H          1 <1>        0.000
     14 H6         -5.7077  -42.8820   31.5806 H          1 <1>        0.000
     15 H7         -6.7332  -41.7694   32.5281 H          1 <1>        0.000
     16 H1         -5.4521  -44.2347   33.5960 H          1 <1>        0.000
     17 C1        -11.0620  -46.0530   31.2420 C.3        1 <1>        0.000
     18 C2        -11.9370  -45.3470   30.2340 C.2        1 <1>        0.010
     19 C3        -12.5070  -43.9850   30.5500 C.3        1 <1>        0.020
     20 O4        -12.1810  -45.8740   29.1720 O.2        1 <1>        0.080
     21 H5        -11.6279  -46.2110   32.1719 H          1 <1>        0.000
     22 H7        -10.7437  -47.0248   30.8367 H          1 <1>        0.000
     23 H8        -11.6848  -43.2768   30.7300 H          1 <1>        0.000
     24 C1        -13.3340  -43.5080   29.3920 C.2        1 <1>        0.000
     25 O1        -12.7670  -43.3840   28.3180 O.2        1 <1>        0.050
     26 N1        -14.6440  -43.2360   29.5650 N.am       1 <1>       -0.120
     27 H2        -15.0710  -43.3510   30.4619 H          1 <1>        0.000
     28 N1        -14.0420  -45.1130   32.1600 N.pl3      1 <1>        0.300
     29 C1        -13.3670  -44.0750   31.7760 C.2        1 <1>        0.040
     30 N2        -13.5440  -43.1430   32.5960 N.2        1 <1>        0.080
     31 C2        -14.4250  -43.5730   33.6490 C.2        1 <1>        0.120
     32 C3        -14.6830  -44.8430   33.2750 C.2        1 <1>        0.130
     33 H1        -14.0710  -46.0158   31.6651 H          1 <1>        0.000
     34 H3        -14.7839  -43.0182   34.5147 H          1 <1>        0.000
     35 H4        -15.3261  -45.5331   33.8191 H          1 <1>        0.000
     36 O1         -6.2150  -45.1430   30.8450 O.3        1 <1>        0.560
     37 H1         -5.5998  -44.7729   31.4672 H          1 <1>        0.000
     38 C1        -15.3890  -42.8080   28.5290 C.2        1 <1>       -0.080
     39 C2        -15.0070  -43.1860   27.1180 C.ar       1 <1>        0.200
     40 C3        -14.3700  -44.4060   26.8690 C.ar       1 <1>        0.180
     41 C4        -14.0170  -44.7560   25.5620 C.ar       1 <1>        0.210
     42 C5        -14.2990  -43.8860   24.5050 C.ar       1 <1>        0.250
     43 C6        -14.9350  -42.6660   24.7540 C.ar       1 <1>        0.220
     44 C7        -15.2890  -42.3160   26.0610 C.ar       1 <1>        0.210
     45 O8        -16.3720  -42.1150   28.7300 O.2        1 <1>        0.540
     46 H2        -14.1510  -45.0801   27.6891 H          1 <1>        0.000
     47 H3        -13.5228  -45.7013   25.3689 H          1 <1>        0.000
     48 H4        -14.0250  -44.1570   23.4918 H          1 <1>        0.000
     49 H5        -15.1539  -41.9913   23.9343 H          1 <1>        0.000
     50 H6        -15.7820  -41.3701   26.2540 H          1 <1>        0.000
@<TRIPOS>BOND
     1    3    2 ar 
     2    3    4 ar 
     3    2    6 ar 
     4    4    1 ar 
     5    6    5 ar 
     6    1    5 ar 
     7    1    7 1  
     8    3    8 1  
     9    5    9 1  
    10   10   11 1  
    11   10   12 1  
    12   10   13 1  
    13   11   14 1  
    14   11   15 1  
    15   10   16 1  
    16    6   11 1  
    17   18   17 1  
    18   18   19 1  
    19   18   20 2  
    20   17   21 1  
    21   17   22 1  
    22   19   23 1  
    23    4   17 1  
    24   24   25 2  
    25   24   26 am 
    26   26   27 1  
    27   19   24 1  
    28   28   29 1  
    29   28   32 1  
    30   29   30 2  
    31   30   31 1  
    32   31   32 2  
    33   28   33 1  
    34   31   34 1  
    35   32   35 1  
    36   19   29 1  
    37   36   37 1  
    38    2   36 1  
    39   38   39 1  
    40   39   40 ar 
    41   39   44 ar 
    42   44   43 ar 
    43   43   42 ar 
    44   42   41 ar 
    45   41   40 ar 
    46   38   45 2  
    47   40   46 1  
    48   41   47 1  
    49   42   48 1  
    50   43   49 1  
    51   44   50 1  
    52   26   38 am 
# Name:          No_4_83
# Creation time: Thu Mar 21 11:29:57 2024


@<TRIPOS>MOLECULE
000003_000001
   45    47     1     1     1
SMALL
USER_CHARGES


@<TRIPOS>ATOM
      1 C17        -9.9380  -44.0780   32.3390 C.ar       1 <1>        0.050
      2 C20        -7.4650  -44.7920   31.3410 C.ar       1 <1>        0.110
      3 C21        -8.5840  -45.5640   31.0680 C.ar       1 <1>        0.230
      4 C16        -9.8330  -45.1980   31.5350 C.ar       1 <1>        0.170
      5 C18        -8.8360  -43.2880   32.6200 C.ar       1 <1>        0.060
      6 C19        -7.6280  -43.6740   32.1130 C.ar       1 <1>        0.100
      7 H          -6.7601  -43.0640   32.3360 H          1 <1>        0.000
      8 H          -6.4902  -45.0660   30.9541 H          1 <1>        0.000
      9 H          -8.4780  -46.4683   30.4798 H          1 <1>        0.000
     10 N1        -13.8190  -41.1570   32.2360 N.4        1 <1>        1.730
     11 C1        -13.1440  -42.3090   32.8750 C.3        1 <1>        0.060
     12 C2        -11.7760  -42.6130   32.2120 C.3        1 <1>        0.000
     13 O1        -11.1740  -43.7380   32.8760 O.3        1 <1>        0.100
     14 H5        -14.7069  -40.9650   32.6729 H          1 <1>        0.000
     15 H6        -14.0010  -41.3250   31.2589 H          1 <1>        0.000
     16 H7        -12.9809  -42.0999   33.9426 H          1 <1>        0.000
     17 H8        -13.7808  -43.2027   32.7980 H          1 <1>        0.000
     18 H9        -11.9280  -42.8411   31.1467 H          1 <1>        0.000
     19 H10       -11.1229  -41.7319   32.2970 H          1 <1>        0.000
     20 H11       -13.2678  -40.3158   32.3040 H          1 <1>        0.000
     21 C1         -8.7610  -42.4690   34.7710 C.3        1 <1>        0.010
     22 O2         -8.9550  -42.1390   33.3930 O.3        1 <1>        0.160
     23 H1         -7.7579  -42.8991   34.9080 H          1 <1>        0.000
     24 H2         -9.5202  -43.2012   35.0831 H          1 <1>        0.000
     25 C5         -8.8940  -41.1950   35.6260 C.3        1 <1>        0.310
     26 H3         -8.7440  -41.4470   36.6862 H          1 <1>        0.000
     27 H5         -9.8971  -40.7649   35.4890 H          1 <1>        0.000
     28 H6         -8.1354  -40.4624   35.3132 H          1 <1>        0.000
     29 C1        -11.0620  -46.0530   31.2420 C.3        1 <1>        0.000
     30 H1        -10.7659  -46.9273   30.6438 H          1 <1>        0.000
     31 H4        -11.5078  -46.3898   32.1895 H          1 <1>        0.000
     32 O1        -12.0090  -42.3690   28.1810 O.3        1 <1>        0.400
     33 C1        -10.6980  -42.5400   28.4680 C.2        1 <1>        0.080
     34 C2        -10.3700  -43.5360   29.3040 C.2        1 <1>        0.060
     35 C3        -12.0820  -45.2270   30.4660 C.ar       1 <1>        0.150
     36 C4        -13.4550  -45.4950   30.5270 C.ar       1 <1>        0.200
     37 C5        -14.3740  -44.7200   29.8030 C.ar       1 <1>        0.060
     38 C6        -13.9490  -43.6560   28.9960 C.ar       1 <1>        0.180
     39 C7        -12.5800  -43.3910   28.9370 C.ar       1 <1>        0.060
     40 C8        -11.6870  -44.1620   29.6570 C.ar       1 <1>        0.160
     41 H1         -9.9426  -41.8887   28.0308 H          1 <1>        0.000
     42 H2         -9.3804  -43.8282   29.6522 H          1 <1>        0.000
     43 H4        -13.8110  -46.3129   31.1429 H          1 <1>        0.000
     44 H5        -15.4320  -44.9470   29.8680 H          1 <1>        0.000
     45 H6        -14.6558  -43.0552   28.4352 H          1 <1>        0.000
@<TRIPOS>BOND
     1    3    2 ar 
     2    3    4 ar 
     3    2    6 ar 
     4    4    1 ar 
     5    6    7 1  
     6    6    5 ar 
     7    1    5 ar 
     8    2    8 1  
     9    3    9 1  
    10   11   10 1  
    11   11   12 1  
    12   12   13 1  
    13   10   14 1  
    14   10   15 1  
    15   11   16 1  
    16   11   17 1  
    17   12   18 1  
    18   12   19 1  
    19   10   20 1  
    20    1   13 1  
    21   22   21 1  
    22   21   23 1  
    23   21   24 1  
    24   21   25 1  
    25   25   26 1  
    26   25   27 1  
    27   25   28 1  
    28    5   22 1  
    29   29   30 1  
    30   29   31 1  
    31    4   29 1  
    32   33   32 1  
    33   32   39 1  
    34   34   33 2  
    35   40   34 1  
    36   35   36 ar 
    37   35   40 ar 
    38   36   37 ar 
    39   37   38 ar 
    40   38   39 ar 
    41   39   40 ar 
    42   33   41 1  
    43   34   42 1  
    44   36   43 1  
    45   37   44 1  
    46   38   45 1  
    47   29   35 1  
# Name:          No_5_14
# Creation time: Thu Mar 21 11:29:57 2024


@<TRIPOS>MOLECULE
000003_000002
   45    47     1     1     1
SMALL
USER_CHARGES


@<TRIPOS>ATOM
      1 C17        -9.9380  -44.0780   32.3390 C.ar       1 <1>        0.050
      2 C20        -7.4650  -44.7920   31.3410 C.ar       1 <1>        0.110
      3 C21        -8.5840  -45.5640   31.0680 C.ar       1 <1>        0.230
      4 C16        -9.8330  -45.1980   31.5350 C.ar       1 <1>        0.170
      5 C18        -8.8360  -43.2880   32.6200 C.ar       1 <1>        0.060
      6 C19        -7.6280  -43.6740   32.1130 C.ar       1 <1>        0.100
      7 H          -6.7601  -43.0640   32.3360 H          1 <1>        0.000
      8 H          -6.4902  -45.0660   30.9541 H          1 <1>        0.000
      9 H          -8.4780  -46.4683   30.4798 H          1 <1>        0.000
     10 N1        -13.8190  -41.1570   32.2360 N.4        1 <1>        1.730
     11 C1        -13.1440  -42.3090   32.8750 C.3        1 <1>        0.060
     12 C2        -11.7760  -42.6130   32.2120 C.3        1 <1>        0.000
     13 O1        -11.1740  -43.7380   32.8760 O.3        1 <1>        0.100
     14 H5        -14.7069  -40.9650   32.6729 H          1 <1>        0.000
     15 H6        -14.0010  -41.3250   31.2589 H          1 <1>        0.000
     16 H7        -12.9809  -42.0999   33.9426 H          1 <1>        0.000
     17 H8        -13.7808  -43.2027   32.7980 H          1 <1>        0.000
     18 H9        -11.9280  -42.8411   31.1467 H          1 <1>        0.000
     19 H10       -11.1229  -41.7319   32.2970 H          1 <1>        0.000
     20 H11       -13.2678  -40.3158   32.3040 H          1 <1>        0.000
     21 C1         -8.7610  -42.4690   34.7710 C.3        1 <1>        0.010
     22 O2         -8.9550  -42.1390   33.3930 O.3        1 <1>        0.160
     23 H1         -7.7579  -42.8991   34.9080 H          1 <1>        0.000
     24 H2         -9.5202  -43.2012   35.0831 H          1 <1>        0.000
     25 C5         -8.8940  -41.1950   35.6260 C.3        1 <1>        0.310
     26 H3         -8.7440  -41.4470   36.6862 H          1 <1>        0.000
     27 H5         -9.8971  -40.7649   35.4890 H          1 <1>        0.000
     28 H6         -8.1354  -40.4624   35.3132 H          1 <1>        0.000
     29 C1        -11.0620  -46.0530   31.2420 C.3        1 <1>        0.000
     30 H1        -10.7659  -46.9273   30.6438 H          1 <1>        0.000
     31 H4        -11.5078  -46.3898   32.1895 H          1 <1>        0.000
     32 O1        -12.0090  -42.3690   28.1810 O.3        1 <1>        0.400
     33 C1        -10.6980  -42.5400   28.4680 C.2        1 <1>        0.080
     34 C2        -10.3700  -43.5360   29.3040 C.2        1 <1>        0.060
     35 C3        -12.0820  -45.2270   30.4660 C.ar       1 <1>        0.150
     36 C4        -13.4550  -45.4950   30.5270 C.ar       1 <1>        0.200
     37 C5        -14.3740  -44.7200   29.8030 C.ar       1 <1>        0.060
     38 C6        -13.9490  -43.6560   28.9960 C.ar       1 <1>        0.180
     39 C7        -12.5800  -43.3910   28.9370 C.ar       1 <1>        0.060
     40 C8        -11.6870  -44.1620   29.6570 C.ar       1 <1>        0.160
     41 H1         -9.9426  -41.8887   28.0308 H          1 <1>        0.000
     42 H2         -9.3804  -43.8282   29.6522 H          1 <1>        0.000
     43 H4        -13.8110  -46.3129   31.1429 H          1 <1>        0.000
     44 H5        -15.4320  -44.9470   29.8680 H          1 <1>        0.000
     45 H6        -14.6558  -43.0552   28.4352 H          1 <1>        0.000
@<TRIPOS>BOND
     1    3    2 ar 
     2    3    4 ar 
     3    2    6 ar 
     4    4    1 ar 
     5    6    7 1  
     6    6    5 ar 
     7    1    5 ar 
     8    2    8 1  
     9    3    9 1  
    10   11   10 1  
    11   11   12 1  
    12   12   13 1  
    13   10   14 1  
    14   10   15 1  
    15   11   16 1  
    16   11   17 1  
    17   12   18 1  
    18   12   19 1  
    19   10   20 1  
    20    1   13 1  
    21   22   21 1  
    22   21   23 1  
    23   21   24 1  
    24   21   25 1  
    25   25   26 1  
    26   25   27 1  
    27   25   28 1  
    28    5   22 1  
    29   29   30 1  
    30   29   31 1  
    31    4   29 1  
    32   33   32 1  
    33   32   39 1  
    34   34   33 2  
    35   40   34 1  
    36   35   36 ar 
    37   35   40 ar 
    38   36   37 ar 
    39   37   38 ar 
    40   38   39 ar 
    41   39   40 ar 
    42   33   41 1  
    43   34   42 1  
    44   36   43 1  
    45   37   44 1  
    46   38   45 1  
    47   29   35 1  
# Name:          No_6_9
# Creation time: Thu Mar 21 11:29:57 2024


@<TRIPOS>MOLECULE
000003_000003
   45    47     1     1     1
SMALL
USER_CHARGES


@<TRIPOS>ATOM
      1 C17        -9.9380  -44.0780   32.3390 C.ar       1 <1>        0.050
      2 C20        -7.4650  -44.7920   31.3410 C.ar       1 <1>        0.110
      3 C21        -8.5840  -45.5640   31.0680 C.ar       1 <1>        0.230
      4 C16        -9.8330  -45.1980   31.5350 C.ar       1 <1>        0.170
      5 C18        -8.8360  -43.2880   32.6200 C.ar       1 <1>        0.060
      6 C19        -7.6280  -43.6740   32.1130 C.ar       1 <1>        0.100
      7 H          -6.7601  -43.0640   32.3360 H          1 <1>        0.000
      8 H          -6.4902  -45.0660   30.9541 H          1 <1>        0.000
      9 H          -8.4780  -46.4683   30.4798 H          1 <1>        0.000
     10 N1        -13.8190  -41.1570   32.2360 N.4        1 <1>        1.730
     11 C1        -13.1440  -42.3090   32.8750 C.3        1 <1>        0.060
     12 C2        -11.7760  -42.6130   32.2120 C.3        1 <1>        0.000
     13 O1        -11.1740  -43.7380   32.8760 O.3        1 <1>        0.100
     14 H5        -14.7069  -40.9650   32.6729 H          1 <1>        0.000
     15 H6        -14.0010  -41.3250   31.2589 H          1 <1>        0.000
     16 H7        -12.9809  -42.0999   33.9426 H          1 <1>        0.000
     17 H8        -13.7808  -43.2027   32.7980 H          1 <1>        0.000
     18 H9        -11.9280  -42.8411   31.1467 H          1 <1>        0.000
     19 H10       -11.1229  -41.7319   32.2970 H          1 <1>        0.000
     20 H11       -13.2678  -40.3158   32.3040 H          1 <1>        0.000
     21 C1         -8.7610  -42.4690   34.7710 C.3        1 <1>        0.010
     22 O2         -8.9550  -42.1390   33.3930 O.3        1 <1>        0.160
     23 H1         -7.7579  -42.8991   34.9080 H          1 <1>        0.000
     24 H2         -9.5202  -43.2012   35.0831 H          1 <1>        0.000
     25 C5         -8.8940  -41.1950   35.6260 C.3        1 <1>        0.310
     26 H3         -8.7440  -41.4470   36.6862 H          1 <1>        0.000
     27 H5         -9.8971  -40.7649   35.4890 H          1 <1>        0.000
     28 H6         -8.1354  -40.4624   35.3132 H          1 <1>        0.000
     29 C1        -11.0620  -46.0530   31.2420 C.3        1 <1>        0.000
     30 H1        -10.7659  -46.9273   30.6438 H          1 <1>        0.000
     31 H4        -11.5078  -46.3898   32.1895 H          1 <1>        0.000
     32 O1        -12.0090  -42.3690   28.1810 O.3        1 <1>        0.400
     33 C1        -10.6980  -42.5400   28.4680 C.2        1 <1>        0.080
     34 C2        -10.3700  -43.5360   29.3040 C.2        1 <1>        0.060
     35 C3        -12.0820  -45.2270   30.4660 C.ar       1 <1>        0.150
     36 C4        -13.4550  -45.4950   30.5270 C.ar       1 <1>        0.200
     37 C5        -14.3740  -44.7200   29.8030 C.ar       1 <1>        0.060
     38 C6        -13.9490  -43.6560   28.9960 C.ar       1 <1>        0.180
     39 C7        -12.5800  -43.3910   28.9370 C.ar       1 <1>        0.060
     40 C8        -11.6870  -44.1620   29.6570 C.ar       1 <1>        0.160
     41 H1         -9.9426  -41.8887   28.0308 H          1 <1>        0.000
     42 H2         -9.3804  -43.8282   29.6522 H          1 <1>        0.000
     43 H4        -13.8110  -46.3129   31.1429 H          1 <1>        0.000
     44 H5        -15.4320  -44.9470   29.8680 H          1 <1>        0.000
     45 H6        -14.6558  -43.0552   28.4352 H          1 <1>        0.000
@<TRIPOS>BOND
     1    3    2 ar 
     2    3    4 ar 
     3    2    6 ar 
     4    4    1 ar 
     5    6    7 1  
     6    6    5 ar 
     7    1    5 ar 
     8    2    8 1  
     9    3    9 1  
    10   11   10 1  
    11   11   12 1  
    12   12   13 1  
    13   10   14 1  
    14   10   15 1  
    15   11   16 1  
    16   11   17 1  
    17   12   18 1  
    18   12   19 1  
    19   10   20 1  
    20    1   13 1  
    21   22   21 1  
    22   21   23 1  
    23   21   24 1  
    24   21   25 1  
    25   25   26 1  
    26   25   27 1  
    27   25   28 1  
    28    5   22 1  
    29   29   30 1  
    30   29   31 1  
    31    4   29 1  
    32   33   32 1  
    33   32   39 1  
    34   34   33 2  
    35   40   34 1  
    36   35   36 ar 
    37   35   40 ar 
    38   36   37 ar 
    39   37   38 ar 
    40   38   39 ar 
    41   39   40 ar 
    42   33   41 1  
    43   34   42 1  
    44   36   43 1  
    45   37   44 1  
    46   38   45 1  
    47   29   35 1  
# Name:          No_6_35
# Creation time: Thu Mar 21 11:29:57 2024


@<TRIPOS>MOLECULE
000004_000001
   50    52     1     1     1
SMALL
USER_CHARGES


@<TRIPOS>ATOM
      1 H         -10.7065  -45.8053   31.3269 H          1 <1>        0.000
      2 C17        -9.9380  -44.0780   32.3390 C.ar       1 <1>        0.050
      3 C20        -7.4650  -44.7920   31.3410 C.ar       1 <1>        0.110
      4 C21        -8.5840  -45.5640   31.0680 C.ar       1 <1>        0.230
      5 C16        -9.8330  -45.1980   31.5350 C.ar       1 <1>        0.220
      6 C18        -8.8360  -43.2880   32.6200 C.ar       1 <1>        0.060
      7 C19        -7.6280  -43.6740   32.1130 C.ar       1 <1>        0.100
      8 H          -6.7601  -43.0640   32.3360 H          1 <1>        0.000
      9 H          -8.4780  -46.4683   30.4798 H          1 <1>        0.000
     10 N1        -13.8190  -41.1570   32.2360 N.4        1 <1>        0.870
     11 C1        -13.1440  -42.3090   32.8750 C.3        1 <1>        0.020
     12 C2        -11.7760  -42.6130   32.2120 C.3        1 <1>        0.040
     13 O1        -11.1740  -43.7380   32.8760 O.3        1 <1>        0.100
     14 H6        -14.0010  -41.3250   31.2589 H          1 <1>        0.000
     15 H7        -12.9809  -42.0999   33.9426 H          1 <1>        0.000
     16 H8        -13.7808  -43.2027   32.7980 H          1 <1>        0.000
     17 H10       -11.1229  -41.7319   32.2970 H          1 <1>        0.000
     18 H11       -13.2678  -40.3158   32.3040 H          1 <1>        0.000
     19 C1         -8.7610  -42.4690   34.7710 C.3        1 <1>        0.010
     20 O2         -8.9550  -42.1390   33.3930 O.3        1 <1>        0.160
     21 H1         -7.7579  -42.8991   34.9080 H          1 <1>        0.000
     22 H2         -9.5202  -43.2012   35.0831 H          1 <1>        0.000
     23 C5         -8.8940  -41.1950   35.6260 C.3        1 <1>        0.310
     24 H3         -8.7440  -41.4470   36.6862 H          1 <1>        0.000
     25 H5         -9.8971  -40.7649   35.4890 H          1 <1>        0.000
     26 H6         -8.1354  -40.4624   35.3132 H          1 <1>        0.000
     27 O1         -6.2150  -45.1430   30.8450 O.3        1 <1>        0.560
     28 H2         -6.2230  -46.0928   30.8300 H          1 <1>        0.000
     29 N1        -12.6300  -44.3120   26.5200 N.am       1 <1>       -0.000
     30 C1        -12.5330  -42.9570   26.3400 C.2        1 <1>        0.050
     31 N2        -12.3410  -42.1740   27.3310 N.2        1 <1>        0.080
     32 C2        -12.2200  -42.6910   28.6690 C.2        1 <1>        0.060
     33 C3        -12.3120  -44.0040   28.8670 C.2        1 <1>        0.070
     34 C4        -12.5320  -44.9100   27.7380 C.2        1 <1>        0.100
     35 N3        -12.1440  -44.0860   30.2920 N.2        1 <1>        0.050
     36 C5        -11.9830  -42.9240   30.7580 C.2        1 <1>        0.020
     37 N4        -12.0240  -42.0500   29.7940 N.pl3      1 <1>        0.160
     38 N5        -12.6420  -42.4770   25.1290 N.pl3      1 <1>        0.030
     39 O1        -12.6140  -46.1140   27.9250 O.2        1 <1>        0.090
     40 H1        -12.7810  -44.9180   25.7390 H          1 <1>        0.000
     41 H3        -11.9199  -41.0304   29.8961 H          1 <1>        0.000
     42 H4        -12.5720  -41.4616   24.9709 H          1 <1>        0.000
     43 H5        -12.7989  -43.0945   24.3197 H          1 <1>        0.000
     44 C1        -14.9060  -40.6310   34.3480 C.2        1 <1>        0.110
     45 O2        -13.7840  -40.6840   34.8230 O.2        1 <1>        0.100
     46 O3        -15.9310  -40.3600   35.1180 O.3        1 <1>        0.570
     47 C4        -15.1140  -40.8770   32.8730 C.3        1 <1>        0.040
     48 H5        -15.6400  -40.2310   36.0131 H          1 <1>        0.000
     49 H7        -15.7843  -41.7384   32.7359 H          1 <1>        0.000
     50 H8        -15.5639  -39.9853   32.4121 H          1 <1>        0.000
@<TRIPOS>BOND
     1    4    3 ar 
     2    4    5 ar 
     3    1    5 1  
     4    3    7 ar 
     5    5    2 ar 
     6    7    8 1  
     7    7    6 ar 
     8    2    6 ar 
     9    4    9 1  
    10   11   10 1  
    11   11   12 1  
    12   12   13 1  
    13   10   14 1  
    14   11   15 1  
    15   11   16 1  
    16   12   17 1  
    17   10   18 1  
    18    2   13 1  
    19   20   19 1  
    20   19   21 1  
    21   19   22 1  
    22   19   23 1  
    23   23   24 1  
    24   23   25 1  
    25   23   26 1  
    26    6   20 1  
    27   27   28 1  
    28    3   27 1  
    29   29   30 1  
    30   29   34 am 
    31   30   31 2  
    32   30   38 1  
    33   31   32 1  
    34   32   33 2  
    35   32   37 1  
    36   33   34 1  
    37   33   35 1  
    38   34   39 2  
    39   35   36 2  
    40   36   37 1  
    41   29   40 1  
    42   37   41 1  
    43   38   42 1  
    44   38   43 1  
    45   12   36 1  
    46   44   45 2  
    47   44   46 1  
    48   44   47 1  
    49   46   48 1  
    50   47   49 1  
    51   47   50 1  
    52   10   47 1  
# Name:          No_6_36
# Creation time: Thu Mar 21 11:29:57 2024


@<TRIPOS>MOLECULE
000004_000002
   50    52     1     1     1
SMALL
USER_CHARGES


@<TRIPOS>ATOM
      1 H         -10.7065  -45.8053   31.3269 H          1 <1>        0.000
      2 C17        -9.9380  -44.0780   32.3390 C.ar       1 <1>        0.050
      3 C20        -7.4650  -44.7920   31.3410 C.ar       1 <1>        0.110
      4 C21        -8.5840  -45.5640   31.0680 C.ar       1 <1>        0.230
      5 C16        -9.8330  -45.1980   31.5350 C.ar       1 <1>        0.220
      6 C18        -8.8360  -43.2880   32.6200 C.ar       1 <1>        0.060
      7 C19        -7.6280  -43.6740   32.1130 C.ar       1 <1>        0.100
      8 H          -6.7601  -43.0640   32.3360 H          1 <1>        0.000
      9 H          -8.4780  -46.4683   30.4798 H          1 <1>        0.000
     10 N1        -13.8190  -41.1570   32.2360 N.4        1 <1>        0.870
     11 C1        -13.1440  -42.3090   32.8750 C.3        1 <1>        0.020
     12 C2        -11.7760  -42.6130   32.2120 C.3        1 <1>        0.040
     13 O1        -11.1740  -43.7380   32.8760 O.3        1 <1>        0.100
     14 H6        -14.0010  -41.3250   31.2589 H          1 <1>        0.000
     15 H7        -12.9809  -42.0999   33.9426 H          1 <1>        0.000
     16 H8        -13.7808  -43.2027   32.7980 H          1 <1>        0.000
     17 H10       -11.1229  -41.7319   32.2970 H          1 <1>        0.000
     18 H11       -13.2678  -40.3158   32.3040 H          1 <1>        0.000
     19 C1         -8.7610  -42.4690   34.7710 C.3        1 <1>        0.010
     20 O2         -8.9550  -42.1390   33.3930 O.3        1 <1>        0.160
     21 H1         -7.7579  -42.8991   34.9080 H          1 <1>        0.000
     22 H2         -9.5202  -43.2012   35.0831 H          1 <1>        0.000
     23 C5         -8.8940  -41.1950   35.6260 C.3        1 <1>        0.310
     24 H3         -8.7440  -41.4470   36.6862 H          1 <1>        0.000
     25 H5         -9.8971  -40.7649   35.4890 H          1 <1>        0.000
     26 H6         -8.1354  -40.4624   35.3132 H          1 <1>        0.000
     27 O1         -6.2150  -45.1430   30.8450 O.3        1 <1>        0.560
     28 H2         -6.2230  -46.0928   30.8300 H          1 <1>        0.000
     29 N1        -12.6300  -44.3120   26.5200 N.am       1 <1>       -0.000
     30 C1        -12.5330  -42.9570   26.3400 C.2        1 <1>        0.050
     31 N2        -12.3410  -42.1740   27.3310 N.2        1 <1>        0.080
     32 C2        -12.2200  -42.6910   28.6690 C.2        1 <1>        0.060
     33 C3        -12.3120  -44.0040   28.8670 C.2        1 <1>        0.070
     34 C4        -12.5320  -44.9100   27.7380 C.2        1 <1>        0.100
     35 N3        -12.1440  -44.0860   30.2920 N.2        1 <1>        0.050
     36 C5        -11.9830  -42.9240   30.7580 C.2        1 <1>        0.020
     37 N4        -12.0240  -42.0500   29.7940 N.pl3      1 <1>        0.160
     38 N5        -12.6420  -42.4770   25.1290 N.pl3      1 <1>        0.030
     39 O1        -12.6140  -46.1140   27.9250 O.2        1 <1>        0.090
     40 H1        -12.7810  -44.9180   25.7390 H          1 <1>        0.000
     41 H3        -11.9199  -41.0304   29.8961 H          1 <1>        0.000
     42 H4        -12.5720  -41.4616   24.9709 H          1 <1>        0.000
     43 H5        -12.7989  -43.0945   24.3197 H          1 <1>        0.000
     44 C1        -14.8840  -40.3450   34.2670 C.2        1 <1>        0.090
     45 O2        -13.7470  -40.2120   34.6900 O.2        1 <1>        0.000
     46 O3        -15.9050  -40.0260   35.0230 O.3        1 <1>        0.600
     47 C4        -15.1140  -40.8770   32.8730 C.3        1 <1>        0.040
     48 H5        -15.5999  -39.7099   35.8653 H          1 <1>        0.000
     49 H7        -15.7044  -41.8036   32.9270 H          1 <1>        0.000
     50 H8        -15.6598  -40.1282   32.2802 H          1 <1>        0.000
@<TRIPOS>BOND
     1    4    3 ar 
     2    4    5 ar 
     3    1    5 1  
     4    3    7 ar 
     5    5    2 ar 
     6    7    8 1  
     7    7    6 ar 
     8    2    6 ar 
     9    4    9 1  
    10   11   10 1  
    11   11   12 1  
    12   12   13 1  
    13   10   14 1  
    14   11   15 1  
    15   11   16 1  
    16   12   17 1  
    17   10   18 1  
    18    2   13 1  
    19   20   19 1  
    20   19   21 1  
    21   19   22 1  
    22   19   23 1  
    23   23   24 1  
    24   23   25 1  
    25   23   26 1  
    26    6   20 1  
    27   27   28 1  
    28    3   27 1  
    29   29   30 1  
    30   29   34 am 
    31   30   31 2  
    32   30   38 1  
    33   31   32 1  
    34   32   33 2  
    35   32   37 1  
    36   33   34 1  
    37   33   35 1  
    38   34   39 2  
    39   35   36 2  
    40   36   37 1  
    41   29   40 1  
    42   37   41 1  
    43   38   42 1  
    44   38   43 1  
    45   12   36 1  
    46   44   45 2  
    47   44   46 1  
    48   44   47 1  
    49   46   48 1  
    50   47   49 1  
    51   47   50 1  
    52   10   47 1  
# Name:          No_7_131
# Creation time: Thu Mar 21 11:29:57 2024


@<TRIPOS>MOLECULE
000005_000001
   51    52     1     1     1
SMALL
USER_CHARGES


@<TRIPOS>ATOM
      1 C17        -9.9380  -44.0780   32.3390 C.ar       1 <1>        0.210
      2 C20        -7.4650  -44.7920   31.3410 C.ar       1 <1>        0.110
      3 C21        -8.5840  -45.5640   31.0680 C.ar       1 <1>        0.180
      4 C16        -9.8330  -45.1980   31.5350 C.ar       1 <1>        0.170
      5 C18        -8.8360  -43.2880   32.6200 C.ar       1 <1>        0.210
      6 C19        -7.6280  -43.6740   32.1130 C.ar       1 <1>        0.060
      7 H         -10.9020  -43.8130   32.7580 H          1 <1>        0.000
      8 H          -6.4902  -45.0660   30.9541 H          1 <1>        0.000
      9 H          -8.9290  -42.3920   33.2230 H          1 <1>        0.000
     10 N1         -5.7570  -43.2770   33.6730 N.4        1 <1>        0.970
     11 C1         -6.4070  -42.8150   32.4270 C.3        1 <1>        0.060
     12 H2         -4.9479  -42.7179   33.8940 H          1 <1>        0.000
     13 H3         -6.3870  -43.2220   34.4580 H          1 <1>        0.000
     14 H6         -5.7077  -42.8820   31.5806 H          1 <1>        0.000
     15 H7         -6.7332  -41.7694   32.5281 H          1 <1>        0.000
     16 H1         -5.4521  -44.2347   33.5960 H          1 <1>        0.000
     17 C1        -11.0620  -46.0530   31.2420 C.3        1 <1>        0.000
     18 C2        -11.9370  -45.3470   30.2340 C.2        1 <1>        0.010
     19 C3        -12.5070  -43.9850   30.5500 C.3        1 <1>        0.020
     20 O4        -12.1810  -45.8740   29.1720 O.2        1 <1>        0.080
     21 H5        -11.6279  -46.2110   32.1719 H          1 <1>        0.000
     22 H7        -10.7437  -47.0248   30.8367 H          1 <1>        0.000
     23 H8        -11.6848  -43.2768   30.7300 H          1 <1>        0.000
     24 O1        -14.7440  -43.5910   33.5200 O.3        1 <1>        0.250
     25 C1        -14.4600  -44.9060   33.5840 C.2        1 <1>        0.120
     26 N1        -13.6940  -45.1870   32.6180 N.2        1 <1>        0.110
     27 C2        -13.3670  -44.0750   31.7760 C.2        1 <1>        0.040
     28 C3        -14.0730  -43.1540   32.4340 C.2        1 <1>        0.100
     29 H1        -14.8261  -45.6042   34.3352 H          1 <1>        0.000
     30 H3        -14.1080  -42.1119   32.1197 H          1 <1>        0.000
     31 C1         -8.4350  -46.8360   30.2400 C.3        1 <1>       -0.040
     32 O3         -8.5940  -47.9770   31.0870 O.3        1 <1>        0.510
     33 H4         -7.4366  -46.8580   29.7788 H          1 <1>        0.000
     34 H5         -9.2032  -46.8530   29.4528 H          1 <1>        0.000
     35 H6         -8.5030  -48.7747   30.5792 H          1 <1>        0.000
     36 C1        -13.3550  -43.4960   29.3620 C.3        1 <1>        0.090
     37 C2        -12.4270  -43.0450   28.2190 C.3        1 <1>       -0.010
     38 H1        -13.9799  -42.6492   29.6819 H          1 <1>        0.000
     39 H3        -14.0003  -44.3143   29.0099 H          1 <1>        0.000
     40 H4        -11.7822  -42.2262   28.5709 H          1 <1>        0.000
     41 H6        -11.8017  -43.8914   27.8988 H          1 <1>        0.000
     42 N1        -13.2370  -42.5770   27.0850 N.4        1 <1>        0.000
     43 H1        -14.1956  -42.4709   27.3782 H          1 <1>        0.000
     44 H3        -12.8829  -41.6899   26.7630 H          1 <1>        0.000
     45 C1        -13.9950  -43.0790   24.8280 C.2        1 <1>        0.080
     46 O2        -14.5930  -42.0180   24.9010 O.2        1 <1>        0.080
     47 O3        -14.0750  -43.8030   23.7390 O.3        1 <1>        0.860
     48 C4        -13.1630  -43.5590   25.9930 C.3        1 <1>       -0.010
     49 H5        -14.6310  -43.3700   23.1020 H          1 <1>        0.000
     50 H7        -13.5487  -44.5273   26.3447 H          1 <1>        0.000
     51 H8        -12.1167  -43.6750   25.6739 H          1 <1>        0.000
@<TRIPOS>BOND
     1    3    2 ar 
     2    3    4 ar 
     3    2    6 ar 
     4    4    1 ar 
     5    6    5 ar 
     6    1    5 ar 
     7    1    7 1  
     8    2    8 1  
     9    5    9 1  
    10   10   11 1  
    11   10   12 1  
    12   10   13 1  
    13   11   14 1  
    14   11   15 1  
    15   10   16 1  
    16    6   11 1  
    17   18   17 1  
    18   18   19 1  
    19   18   20 2  
    20   17   21 1  
    21   17   22 1  
    22   19   23 1  
    23    4   17 1  
    24   24   25 1  
    25   24   28 1  
    26   25   26 2  
    27   26   27 1  
    28   27   28 2  
    29   25   29 1  
    30   28   30 1  
    31   19   27 1  
    32   31   32 1  
    33   31   33 1  
    34   31   34 1  
    35   32   35 1  
    36    3   31 1  
    37   37   36 1  
    38   36   38 1  
    39   36   39 1  
    40   37   40 1  
    41   37   41 1  
    42   19   36 1  
    43   42   43 1  
    44   42   44 1  
    45   37   42 1  
    46   45   46 2  
    47   45   47 1  
    48   45   48 1  
    49   47   49 1  
    50   48   50 1  
    51   48   51 1  
    52   42   48 1  
# Name:          No_7_113
# Creation time: Thu Mar 21 11:29:57 2024


@<TRIPOS>MOLECULE
000005_000002
   51    52     1     1     1
SMALL
USER_CHARGES


@<TRIPOS>ATOM
      1 C17        -9.9380  -44.0780   32.3390 C.ar       1 <1>        0.210
      2 C20        -7.4650  -44.7920   31.3410 C.ar       1 <1>        0.110
      3 C21        -8.5840  -45.5640   31.0680 C.ar       1 <1>        0.180
      4 C16        -9.8330  -45.1980   31.5350 C.ar       1 <1>        0.170
      5 C18        -8.8360  -43.2880   32.6200 C.ar       1 <1>        0.210
      6 C19        -7.6280  -43.6740   32.1130 C.ar       1 <1>        0.060
      7 H         -10.9020  -43.8130   32.7580 H          1 <1>        0.000
      8 H          -6.4902  -45.0660   30.9541 H          1 <1>        0.000
      9 H          -8.9290  -42.3920   33.2230 H          1 <1>        0.000
     10 N1         -5.7570  -43.2770   33.6730 N.4        1 <1>        0.970
     11 C1         -6.4070  -42.8150   32.4270 C.3        1 <1>        0.060
     12 H2         -4.9479  -42.7179   33.8940 H          1 <1>        0.000
     13 H3         -6.3870  -43.2220   34.4580 H          1 <1>        0.000
     14 H6         -5.7077  -42.8820   31.5806 H          1 <1>        0.000
     15 H7         -6.7332  -41.7694   32.5281 H          1 <1>        0.000
     16 H1         -5.4521  -44.2347   33.5960 H          1 <1>        0.000
     17 C1        -11.0620  -46.0530   31.2420 C.3        1 <1>        0.000
     18 C2        -11.9370  -45.3470   30.2340 C.2        1 <1>        0.010
     19 C3        -12.5070  -43.9850   30.5500 C.3        1 <1>        0.020
     20 O4        -12.1810  -45.8740   29.1720 O.2        1 <1>        0.080
     21 H5        -11.6279  -46.2110   32.1719 H          1 <1>        0.000
     22 H7        -10.7437  -47.0248   30.8367 H          1 <1>        0.000
     23 H8        -11.6848  -43.2768   30.7300 H          1 <1>        0.000
     24 O1        -14.7440  -43.5910   33.5200 O.3        1 <1>        0.250
     25 C1        -14.4600  -44.9060   33.5840 C.2        1 <1>        0.120
     26 N1        -13.6940  -45.1870   32.6180 N.2        1 <1>        0.110
     27 C2        -13.3670  -44.0750   31.7760 C.2        1 <1>        0.040
     28 C3        -14.0730  -43.1540   32.4340 C.2        1 <1>        0.100
     29 H1        -14.8261  -45.6042   34.3352 H          1 <1>        0.000
     30 H3        -14.1080  -42.1119   32.1197 H          1 <1>        0.000
     31 C1         -8.4350  -46.8360   30.2400 C.3        1 <1>       -0.040
     32 O3         -8.5940  -47.9770   31.0870 O.3        1 <1>        0.510
     33 H4         -7.4366  -46.8580   29.7788 H          1 <1>        0.000
     34 H5         -9.2032  -46.8530   29.4528 H          1 <1>        0.000
     35 H6         -8.5030  -48.7747   30.5792 H          1 <1>        0.000
     36 C1        -13.3550  -43.4960   29.3620 C.3        1 <1>        0.090
     37 C2        -12.5390  -42.5130   28.4830 C.3        1 <1>        0.070
     38 C3        -11.2650  -43.1890   27.9130 C.3        1 <1>       -0.010
     39 H1        -14.2527  -42.9962   29.7549 H          1 <1>        0.000
     40 H3        -13.6711  -44.3674   28.7697 H          1 <1>        0.000
     41 H4        -12.2480  -41.6410   29.0870 H          1 <1>        0.000
     42 H5        -13.1673  -42.1608   27.6516 H          1 <1>        0.000
     43 H7        -11.5371  -44.0543   27.2908 H          1 <1>        0.000
     44 H8        -10.6150  -43.5330   28.7310 H          1 <1>        0.000
     45 C1         -9.1890  -42.1070   27.2740 C.2        1 <1>        0.110
     46 O1         -8.6100  -42.7720   28.1200 O.2        1 <1>        0.500
     47 N1        -10.5230  -42.2480   27.0970 N.am       1 <1>        0.010
     48 N2         -8.4990  -41.2280   26.5120 N.am       1 <1>        0.060
     49 H1        -11.0171  -41.7139   26.4109 H          1 <1>        0.000
     50 H3         -8.9529  -40.6741   25.8141 H          1 <1>        0.000
     51 H4         -7.5129  -41.1230   26.6410 H          1 <1>        0.000
@<TRIPOS>BOND
     1    3    2 ar 
     2    3    4 ar 
     3    2    6 ar 
     4    4    1 ar 
     5    6    5 ar 
     6    1    5 ar 
     7    1    7 1  
     8    2    8 1  
     9    5    9 1  
    10   10   11 1  
    11   10   12 1  
    12   10   13 1  
    13   11   14 1  
    14   11   15 1  
    15   10   16 1  
    16    6   11 1  
    17   18   17 1  
    18   18   19 1  
    19   18   20 2  
    20   17   21 1  
    21   17   22 1  
    22   19   23 1  
    23    4   17 1  
    24   24   25 1  
    25   24   28 1  
    26   25   26 2  
    27   26   27 1  
    28   27   28 2  
    29   25   29 1  
    30   28   30 1  
    31   19   27 1  
    32   31   32 1  
    33   31   33 1  
    34   31   34 1  
    35   32   35 1  
    36    3   31 1  
    37   37   36 1  
    38   37   38 1  
    39   36   39 1  
    40   36   40 1  
    41   37   41 1  
    42   37   42 1  
    43   38   43 1  
    44   38   44 1  
    45   19   36 1  
    46   45   46 2  
    47   45   47 am 
    48   45   48 am 
    49   47   49 1  
    50   48   50 1  
    51   48   51 1  
    52   38   47 1  
# Name:          No_7_132
# Creation time: Thu Mar 21 11:29:57 2024


@<TRIPOS>MOLECULE
000005_000003
   51    52     1     1     1
SMALL
USER_CHARGES


@<TRIPOS>ATOM
      1 C17        -9.9380  -44.0780   32.3390 C.ar       1 <1>        0.210
      2 C20        -7.4650  -44.7920   31.3410 C.ar       1 <1>        0.110
      3 C21        -8.5840  -45.5640   31.0680 C.ar       1 <1>        0.180
      4 C16        -9.8330  -45.1980   31.5350 C.ar       1 <1>        0.170
      5 C18        -8.8360  -43.2880   32.6200 C.ar       1 <1>        0.210
      6 C19        -7.6280  -43.6740   32.1130 C.ar       1 <1>        0.060
      7 H         -10.9020  -43.8130   32.7580 H          1 <1>        0.000
      8 H          -6.4902  -45.0660   30.9541 H          1 <1>        0.000
      9 H          -8.9290  -42.3920   33.2230 H          1 <1>        0.000
     10 N1         -5.7570  -43.2770   33.6730 N.4        1 <1>        0.970
     11 C1         -6.4070  -42.8150   32.4270 C.3        1 <1>        0.060
     12 H2         -4.9479  -42.7179   33.8940 H          1 <1>        0.000
     13 H3         -6.3870  -43.2220   34.4580 H          1 <1>        0.000
     14 H6         -5.7077  -42.8820   31.5806 H          1 <1>        0.000
     15 H7         -6.7332  -41.7694   32.5281 H          1 <1>        0.000
     16 H1         -5.4521  -44.2347   33.5960 H          1 <1>        0.000
     17 C1        -11.0620  -46.0530   31.2420 C.3        1 <1>        0.000
     18 C2        -11.9370  -45.3470   30.2340 C.2        1 <1>        0.010
     19 C3        -12.5070  -43.9850   30.5500 C.3        1 <1>        0.020
     20 O4        -12.1810  -45.8740   29.1720 O.2        1 <1>        0.080
     21 H5        -11.6279  -46.2110   32.1719 H          1 <1>        0.000
     22 H7        -10.7437  -47.0248   30.8367 H          1 <1>        0.000
     23 H8        -11.6848  -43.2768   30.7300 H          1 <1>        0.000
     24 O1        -14.7440  -43.5910   33.5200 O.3        1 <1>        0.250
     25 C1        -14.4600  -44.9060   33.5840 C.2        1 <1>        0.120
     26 N1        -13.6940  -45.1870   32.6180 N.2        1 <1>        0.110
     27 C2        -13.3670  -44.0750   31.7760 C.2        1 <1>        0.040
     28 C3        -14.0730  -43.1540   32.4340 C.2        1 <1>        0.100
     29 H1        -14.8261  -45.6042   34.3352 H          1 <1>        0.000
     30 H3        -14.1080  -42.1119   32.1197 H          1 <1>        0.000
     31 C1         -8.4350  -46.8360   30.2400 C.3        1 <1>       -0.040
     32 O3         -8.5940  -47.9770   31.0870 O.3        1 <1>        0.510
     33 H4         -7.4366  -46.8580   29.7788 H          1 <1>        0.000
     34 H5         -9.2032  -46.8530   29.4528 H          1 <1>        0.000
     35 H6         -8.5030  -48.7747   30.5792 H          1 <1>        0.000
     36 C1        -13.3550  -43.4960   29.3620 C.3        1 <1>        0.090
     37 C2        -12.4270  -43.0450   28.2190 C.3        1 <1>       -0.010
     38 H1        -13.9799  -42.6492   29.6819 H          1 <1>        0.000
     39 H3        -14.0003  -44.3143   29.0099 H          1 <1>        0.000
     40 H4        -11.7822  -42.2262   28.5709 H          1 <1>        0.000
     41 H6        -11.8017  -43.8914   27.8988 H          1 <1>        0.000
     42 N1        -13.2370  -42.5770   27.0850 N.4        1 <1>        0.000
     43 H1        -14.1956  -42.4709   27.3782 H          1 <1>        0.000
     44 H3        -12.8829  -41.6899   26.7630 H          1 <1>        0.000
     45 C1        -13.6730  -42.9320   24.7170 C.2        1 <1>        0.070
     46 O2        -14.0600  -41.7750   24.7180 O.2        1 <1>        0.090
     47 O3        -13.6980  -43.6310   23.6090 O.3        1 <1>        0.840
     48 C4        -13.1630  -43.5590   25.9930 C.3        1 <1>       -0.010
     49 H5        -14.0418  -43.1012   22.8993 H          1 <1>        0.000
     50 H7        -13.7819  -44.4328   26.2449 H          1 <1>        0.000
     51 H8        -12.1188  -43.8761   25.8550 H          1 <1>        0.000
@<TRIPOS>BOND
     1    3    2 ar 
     2    3    4 ar 
     3    2    6 ar 
     4    4    1 ar 
     5    6    5 ar 
     6    1    5 ar 
     7    1    7 1  
     8    2    8 1  
     9    5    9 1  
    10   10   11 1  
    11   10   12 1  
    12   10   13 1  
    13   11   14 1  
    14   11   15 1  
    15   10   16 1  
    16    6   11 1  
    17   18   17 1  
    18   18   19 1  
    19   18   20 2  
    20   17   21 1  
    21   17   22 1  
    22   19   23 1  
    23    4   17 1  
    24   24   25 1  
    25   24   28 1  
    26   25   26 2  
    27   26   27 1  
    28   27   28 2  
    29   25   29 1  
    30   28   30 1  
    31   19   27 1  
    32   31   32 1  
    33   31   33 1  
    34   31   34 1  
    35   32   35 1  
    36    3   31 1  
    37   37   36 1  
    38   36   38 1  
    39   36   39 1  
    40   37   40 1  
    41   37   41 1  
    42   19   36 1  
    43   42   43 1  
    44   42   44 1  
    45   37   42 1  
    46   45   46 2  
    47   45   47 1  
    48   45   48 1  
    49   47   49 1  
    50   48   50 1  
    51   48   51 1  
    52   42   48 1  
# Name:          No_6_113
# Creation time: Thu Mar 21 11:47:48 2024


@<TRIPOS>MOLECULE
000001_000001
   35    36     1     1     1
SMALL
USER_CHARGES


@<TRIPOS>ATOM
      1 H         -10.7065  -45.8053   31.3269 H          1 <1>        0.000
      2 C17        -9.9380  -44.0780   32.3390 C.ar       1 <1>        0.150
      3 C20        -7.4650  -44.7920   31.3410 C.ar       1 <1>        0.110
      4 C21        -8.5840  -45.5640   31.0680 C.ar       1 <1>        0.110
      5 C16        -9.8330  -45.1980   31.5350 C.ar       1 <1>        0.220
      6 C18        -8.8360  -43.2880   32.6200 C.ar       1 <1>        0.210
      7 C19        -7.6280  -43.6740   32.1130 C.ar       1 <1>        0.060
      8 H          -6.4902  -45.0660   30.9541 H          1 <1>        0.000
      9 H          -8.9290  -42.3920   33.2230 H          1 <1>        0.000
     10 C1        -11.6630  -42.2720   32.5020 C.3        1 <1>        0.010
     11 C2        -11.2940  -43.7050   32.9280 C.3        1 <1>       -0.140
     12 H1        -10.8987  -41.5717   32.8701 H          1 <1>        0.000
     13 H3        -11.7130  -42.2170   31.4045 H          1 <1>        0.000
     14 H4        -11.2450  -43.7600   34.0255 H          1 <1>        0.000
     15 H6        -12.0584  -44.4054   32.5603 H          1 <1>        0.000
     16 O1        -14.1540  -42.2500   32.4760 O.3        1 <1>        0.970
     17 C1        -15.1140  -41.7550   33.2800 C.2        1 <1>        0.130
     18 N1        -14.5490  -41.1810   34.2550 N.2        1 <1>        0.120
     19 C2        -13.1180  -41.2230   34.2210 C.2        1 <1>        0.040
     20 C3        -12.9980  -41.9060   33.0810 C.2        1 <1>        0.050
     21 H1        -16.1880  -41.8360   33.1190 H          1 <1>        0.000
     22 C1         -6.4070  -42.8150   32.4270 C.3        1 <1>        0.060
     23 H2         -5.6857  -43.4042   33.0122 H          1 <1>        0.000
     24 O3         -5.7970  -42.3910   31.2060 O.3        1 <1>        0.740
     25 H4         -6.7181  -41.9337   33.0072 H          1 <1>        0.000
     26 H6         -6.4139  -41.8811   30.6941 H          1 <1>        0.000
     27 O1         -8.4480  -46.7230   30.3130 O.3        1 <1>        0.570
     28 H2         -7.5106  -46.8711   30.2710 H          1 <1>        0.000
     29 N1        -12.7400  -40.1770   36.4020 N.4        1 <1>        1.060
     30 C1        -12.0920  -40.6720   35.1670 C.3        1 <1>       -0.070
     31 H2        -13.2371  -40.9141   36.8771 H          1 <1>        0.000
     32 H3        -12.0623  -39.8032   37.0477 H          1 <1>        0.000
     33 H5        -11.5537  -39.8566   34.6617 H          1 <1>        0.000
     34 H7        -11.3724  -41.4695   35.4039 H          1 <1>        0.000
     35 H1        -13.4020  -39.4440   36.2010 H          1 <1>        0.000
@<TRIPOS>BOND
     1    4    3 ar 
     2    4    5 ar 
     3    1    5 1  
     4    3    7 ar 
     5    5    2 ar 
     6    7    6 ar 
     7    2    6 ar 
     8    3    8 1  
     9    6    9 1  
    10   11   10 1  
    11   10   12 1  
    12   10   13 1  
    13   11   14 1  
    14   11   15 1  
    15    2   11 1  
    16   16   17 1  
    17   16   20 1  
    18   17   18 2  
    19   18   19 1  
    20   19   20 2  
    21   17   21 1  
    22   10   20 1  
    23   22   23 1  
    24   22   24 1  
    25   22   25 1  
    26   24   26 1  
    27    7   22 1  
    28   27   28 1  
    29    4   27 1  
    30   29   30 1  
    31   29   31 1  
    32   29   32 1  
    33   30   33 1  
    34   30   34 1  
    35   29   35 1  
    36   19   30 1  
# Name:          No_7_1
# Creation time: Thu Mar 21 11:47:48 2024


@<TRIPOS>MOLECULE
000001_000002
   35    36     1     1     1
SMALL
USER_CHARGES


@<TRIPOS>ATOM
      1 H         -10.7065  -45.8053   31.3269 H          1 <1>        0.000
      2 C17        -9.9380  -44.0780   32.3390 C.ar       1 <1>        0.150
      3 C20        -7.4650  -44.7920   31.3410 C.ar       1 <1>        0.110
      4 C21        -8.5840  -45.5640   31.0680 C.ar       1 <1>        0.110
      5 C16        -9.8330  -45.1980   31.5350 C.ar       1 <1>        0.220
      6 C18        -8.8360  -43.2880   32.6200 C.ar       1 <1>        0.210
      7 C19        -7.6280  -43.6740   32.1130 C.ar       1 <1>        0.060
      8 H          -6.4902  -45.0660   30.9541 H          1 <1>        0.000
      9 H          -8.9290  -42.3920   33.2230 H          1 <1>        0.000
     10 C1        -11.6630  -42.2720   32.5020 C.3        1 <1>        0.010
     11 C2        -11.2940  -43.7050   32.9280 C.3        1 <1>       -0.140
     12 H1        -10.8987  -41.5717   32.8701 H          1 <1>        0.000
     13 H3        -11.7130  -42.2170   31.4045 H          1 <1>        0.000
     14 H4        -11.2450  -43.7600   34.0255 H          1 <1>        0.000
     15 H6        -12.0584  -44.4054   32.5603 H          1 <1>        0.000
     16 O1        -14.1540  -42.2500   32.4760 O.3        1 <1>        0.970
     17 C1        -15.1140  -41.7550   33.2800 C.2        1 <1>        0.130
     18 N1        -14.5490  -41.1810   34.2550 N.2        1 <1>        0.120
     19 C2        -13.1180  -41.2230   34.2210 C.2        1 <1>        0.040
     20 C3        -12.9980  -41.9060   33.0810 C.2        1 <1>        0.050
     21 H1        -16.1880  -41.8360   33.1190 H          1 <1>        0.000
     22 C1         -6.4070  -42.8150   32.4270 C.3        1 <1>        0.060
     23 H2         -5.6857  -43.4042   33.0122 H          1 <1>        0.000
     24 O3         -5.7970  -42.3910   31.2060 O.3        1 <1>        0.740
     25 H4         -6.7181  -41.9337   33.0072 H          1 <1>        0.000
     26 H6         -6.4139  -41.8811   30.6941 H          1 <1>        0.000
     27 O1         -8.4480  -46.7230   30.3130 O.3        1 <1>        0.570
     28 H2         -7.5106  -46.8711   30.2710 H          1 <1>        0.000
     29 N1        -12.7400  -40.1770   36.4020 N.4        1 <1>        1.060
     30 C1        -12.0920  -40.6720   35.1670 C.3        1 <1>       -0.070
     31 H2        -13.2371  -40.9141   36.8771 H          1 <1>        0.000
     32 H3        -12.0623  -39.8032   37.0477 H          1 <1>        0.000
     33 H5        -11.5537  -39.8566   34.6617 H          1 <1>        0.000
     34 H7        -11.3724  -41.4695   35.4039 H          1 <1>        0.000
     35 H1        -13.4020  -39.4440   36.2010 H          1 <1>        0.000
@<TRIPOS>BOND
     1    4    3 ar 
     2    4    5 ar 
     3    1    5 1  
     4    3    7 ar 
     5    5    2 ar 
     6    7    6 ar 
     7    2    6 ar 
     8    3    8 1  
     9    6    9 1  
    10   11   10 1  
    11   10   12 1  
    12   10   13 1  
    13   11   14 1  
    14   11   15 1  
    15    2   11 1  
    16   16   17 1  
    17   16   20 1  
    18   17   18 2  
    19   18   19 1  
    20   19   20 2  
    21   17   21 1  
    22   10   20 1  
    23   22   23 1  
    24   22   24 1  
    25   22   25 1  
    26   24   26 1  
    27    7   22 1  
    28   27   28 1  
    29    4   27 1  
    30   29   30 1  
    31   29   31 1  
    32   29   32 1  
    33   30   33 1  
    34   30   34 1  
    35   29   35 1  
    36   19   30 1  
# Name:          No_7_58
# Creation time: Thu Mar 21 11:47:48 2024


@<TRIPOS>MOLECULE
000001_000003
   33    34     1     1     1
SMALL
USER_CHARGES


@<TRIPOS>ATOM
      1 H         -10.7065  -45.8053   31.3269 H          1 <1>        0.000
      2 C17        -9.9380  -44.0780   32.3390 C.ar       1 <1>        0.150
      3 C20        -7.4650  -44.7920   31.3410 C.ar       1 <1>        0.110
      4 C21        -8.5840  -45.5640   31.0680 C.ar       1 <1>        0.110
      5 C16        -9.8330  -45.1980   31.5350 C.ar       1 <1>        0.220
      6 C18        -8.8360  -43.2880   32.6200 C.ar       1 <1>        0.210
      7 C19        -7.6280  -43.6740   32.1130 C.ar       1 <1>        0.060
      8 H          -6.4902  -45.0660   30.9541 H          1 <1>        0.000
      9 H          -8.9290  -42.3920   33.2230 H          1 <1>        0.000
     10 C1        -11.6630  -42.2720   32.5020 C.3        1 <1>        0.010
     11 C2        -11.2940  -43.7050   32.9280 C.3        1 <1>       -0.140
     12 H1        -10.8987  -41.5717   32.8701 H          1 <1>        0.000
     13 H3        -11.7130  -42.2170   31.4045 H          1 <1>        0.000
     14 H4        -11.2450  -43.7600   34.0255 H          1 <1>        0.000
     15 H6        -12.0584  -44.4054   32.5603 H          1 <1>        0.000
     16 O1        -14.1540  -42.2500   32.4760 O.3        1 <1>        0.970
     17 C1        -15.1140  -41.7550   33.2800 C.2        1 <1>        0.130
     18 N1        -14.5490  -41.1810   34.2550 N.2        1 <1>        0.120
     19 C2        -13.1180  -41.2230   34.2210 C.2        1 <1>        0.040
     20 C3        -12.9980  -41.9060   33.0810 C.2        1 <1>        0.050
     21 H1        -16.1880  -41.8360   33.1190 H          1 <1>        0.000
     22 C1         -6.4070  -42.8150   32.4270 C.3        1 <1>        0.060
     23 H2         -5.6857  -43.4042   33.0122 H          1 <1>        0.000
     24 O3         -5.7970  -42.3910   31.2060 O.3        1 <1>        0.740
     25 H4         -6.7181  -41.9337   33.0072 H          1 <1>        0.000
     26 H6         -6.4139  -41.8811   30.6941 H          1 <1>        0.000
     27 O1         -8.4480  -46.7230   30.3130 O.3        1 <1>        0.570
     28 H2         -7.6828  -47.1541   30.6751 H          1 <1>        0.000
     29 C1        -12.0920  -40.6720   35.1670 C.3        1 <1>       -0.070
     30 O3        -10.9230  -41.4950   35.1340 O.3        1 <1>        0.560
     31 H4        -12.5031  -40.6600   36.1872 H          1 <1>        0.000
     32 H5        -11.8281  -39.6474   34.8661 H          1 <1>        0.000
     33 H6        -10.2674  -41.1532   35.7306 H          1 <1>        0.000
@<TRIPOS>BOND
     1    4    3 ar 
     2    4    5 ar 
     3    1    5 1  
     4    3    7 ar 
     5    5    2 ar 
     6    7    6 ar 
     7    2    6 ar 
     8    3    8 1  
     9    6    9 1  
    10   11   10 1  
    11   10   12 1  
    12   10   13 1  
    13   11   14 1  
    14   11   15 1  
    15    2   11 1  
    16   16   17 1  
    17   16   20 1  
    18   17   18 2  
    19   18   19 1  
    20   19   20 2  
    21   17   21 1  
    22   10   20 1  
    23   22   23 1  
    24   22   24 1  
    25   22   25 1  
    26   24   26 1  
    27    7   22 1  
    28   27   28 1  
    29    4   27 1  
    30   29   30 1  
    31   29   31 1  
    32   29   32 1  
    33   30   33 1  
    34   19   29 1  
# Name:          No_7_6
# Creation time: Thu Mar 21 11:47:48 2024


@<TRIPOS>MOLECULE
000001_000004
   33    34     1     1     1
SMALL
USER_CHARGES


@<TRIPOS>ATOM
      1 H         -10.7065  -45.8053   31.3269 H          1 <1>        0.000
      2 C17        -9.9380  -44.0780   32.3390 C.ar       1 <1>        0.150
      3 C20        -7.4650  -44.7920   31.3410 C.ar       1 <1>        0.110
      4 C21        -8.5840  -45.5640   31.0680 C.ar       1 <1>        0.110
      5 C16        -9.8330  -45.1980   31.5350 C.ar       1 <1>        0.220
      6 C18        -8.8360  -43.2880   32.6200 C.ar       1 <1>        0.210
      7 C19        -7.6280  -43.6740   32.1130 C.ar       1 <1>        0.060
      8 H          -6.4902  -45.0660   30.9541 H          1 <1>        0.000
      9 H          -8.9290  -42.3920   33.2230 H          1 <1>        0.000
     10 C1        -11.6630  -42.2720   32.5020 C.3        1 <1>        0.010
     11 C2        -11.2940  -43.7050   32.9280 C.3        1 <1>       -0.140
     12 H1        -10.8987  -41.5717   32.8701 H          1 <1>        0.000
     13 H3        -11.7130  -42.2170   31.4045 H          1 <1>        0.000
     14 H4        -11.2450  -43.7600   34.0255 H          1 <1>        0.000
     15 H6        -12.0584  -44.4054   32.5603 H          1 <1>        0.000
     16 O1        -14.1540  -42.2500   32.4760 O.3        1 <1>        0.970
     17 C1        -15.1140  -41.7550   33.2800 C.2        1 <1>        0.130
     18 N1        -14.5490  -41.1810   34.2550 N.2        1 <1>        0.120
     19 C2        -13.1180  -41.2230   34.2210 C.2        1 <1>        0.040
     20 C3        -12.9980  -41.9060   33.0810 C.2        1 <1>        0.050
     21 H1        -16.1880  -41.8360   33.1190 H          1 <1>        0.000
     22 C1         -6.4070  -42.8150   32.4270 C.3        1 <1>        0.060
     23 H2         -5.6857  -43.4042   33.0122 H          1 <1>        0.000
     24 O3         -5.7970  -42.3910   31.2060 O.3        1 <1>        0.740
     25 H4         -6.7181  -41.9337   33.0072 H          1 <1>        0.000
     26 H6         -6.4139  -41.8811   30.6941 H          1 <1>        0.000
     27 O1         -8.4480  -46.7230   30.3130 O.3        1 <1>        0.570
     28 H2         -7.5106  -46.8711   30.2710 H          1 <1>        0.000
     29 C1        -12.0920  -40.6720   35.1670 C.3        1 <1>       -0.070
     30 H2        -11.6321  -39.7743   34.7281 H          1 <1>        0.000
     31 O3        -11.0820  -41.6570   35.4020 O.3        1 <1>        0.550
     32 H5        -12.5751  -40.4079   36.1193 H          1 <1>        0.000
     33 H6        -11.4708  -42.4366   35.7808 H          1 <1>        0.000
@<TRIPOS>BOND
     1    4    3 ar 
     2    4    5 ar 
     3    1    5 1  
     4    3    7 ar 
     5    5    2 ar 
     6    7    6 ar 
     7    2    6 ar 
     8    3    8 1  
     9    6    9 1  
    10   11   10 1  
    11   10   12 1  
    12   10   13 1  
    13   11   14 1  
    14   11   15 1  
    15    2   11 1  
    16   16   17 1  
    17   16   20 1  
    18   17   18 2  
    19   18   19 1  
    20   19   20 2  
    21   17   21 1  
    22   10   20 1  
    23   22   23 1  
    24   22   24 1  
    25   22   25 1  
    26   24   26 1  
    27    7   22 1  
    28   27   28 1  
    29    4   27 1  
    30   29   30 1  
    31   29   31 1  
    32   29   32 1  
    33   31   33 1  
    34   19   29 1  
# Name:          No_6_39
# Creation time: Thu Mar 21 11:47:48 2024


@<TRIPOS>MOLECULE
000001_000005
   33    34     1     1     1
SMALL
USER_CHARGES


@<TRIPOS>ATOM
      1 H         -10.7065  -45.8053   31.3269 H          1 <1>        0.000
      2 C17        -9.9380  -44.0780   32.3390 C.ar       1 <1>        0.150
      3 C20        -7.4650  -44.7920   31.3410 C.ar       1 <1>        0.110
      4 C21        -8.5840  -45.5640   31.0680 C.ar       1 <1>        0.110
      5 C16        -9.8330  -45.1980   31.5350 C.ar       1 <1>        0.220
      6 C18        -8.8360  -43.2880   32.6200 C.ar       1 <1>        0.210
      7 C19        -7.6280  -43.6740   32.1130 C.ar       1 <1>        0.060
      8 H          -6.4902  -45.0660   30.9541 H          1 <1>        0.000
      9 H          -8.9290  -42.3920   33.2230 H          1 <1>        0.000
     10 C1        -11.6630  -42.2720   32.5020 C.3        1 <1>        0.010
     11 C2        -11.2940  -43.7050   32.9280 C.3        1 <1>       -0.140
     12 H1        -10.8987  -41.5717   32.8701 H          1 <1>        0.000
     13 H3        -11.7130  -42.2170   31.4045 H          1 <1>        0.000
     14 H4        -11.2450  -43.7600   34.0255 H          1 <1>        0.000
     15 H6        -12.0584  -44.4054   32.5603 H          1 <1>        0.000
     16 O1        -14.1540  -42.2500   32.4760 O.3        1 <1>        0.970
     17 C1        -15.1140  -41.7550   33.2800 C.2        1 <1>        0.130
     18 N1        -14.5490  -41.1810   34.2550 N.2        1 <1>        0.120
     19 C2        -13.1180  -41.2230   34.2210 C.2        1 <1>        0.040
     20 C3        -12.9980  -41.9060   33.0810 C.2        1 <1>        0.050
     21 H1        -16.1880  -41.8360   33.1190 H          1 <1>        0.000
     22 C1         -6.4070  -42.8150   32.4270 C.3        1 <1>        0.060
     23 H2         -5.6857  -43.4042   33.0122 H          1 <1>        0.000
     24 O3         -5.7970  -42.3910   31.2060 O.3        1 <1>        0.740
     25 H4         -6.7181  -41.9337   33.0072 H          1 <1>        0.000
     26 H6         -6.4139  -41.8811   30.6941 H          1 <1>        0.000
     27 O1         -8.4480  -46.7230   30.3130 O.3        1 <1>        0.570
     28 H2         -7.5106  -46.8711   30.2710 H          1 <1>        0.000
     29 C1        -12.0920  -40.6720   35.1670 C.3        1 <1>       -0.070
     30 H2        -11.6321  -39.7743   34.7281 H          1 <1>        0.000
     31 O3        -11.0820  -41.6570   35.4020 O.3        1 <1>        0.550
     32 H5        -12.5751  -40.4079   36.1193 H          1 <1>        0.000
     33 H6        -11.4708  -42.4366   35.7808 H          1 <1>        0.000
@<TRIPOS>BOND
     1    4    3 ar 
     2    4    5 ar 
     3    1    5 1  
     4    3    7 ar 
     5    5    2 ar 
     6    7    6 ar 
     7    2    6 ar 
     8    3    8 1  
     9    6    9 1  
    10   11   10 1  
    11   10   12 1  
    12   10   13 1  
    13   11   14 1  
    14   11   15 1  
    15    2   11 1  
    16   16   17 1  
    17   16   20 1  
    18   17   18 2  
    19   18   19 1  
    20   19   20 2  
    21   17   21 1  
    22   10   20 1  
    23   22   23 1  
    24   22   24 1  
    25   22   25 1  
    26   24   26 1  
    27    7   22 1  
    28   27   28 1  
    29    4   27 1  
    30   29   30 1  
    31   29   31 1  
    32   29   32 1  
    33   31   33 1  
    34   19   29 1  
# Name:          No_7_51
# Creation time: Thu Mar 21 11:47:48 2024


@<TRIPOS>MOLECULE
000002_000001
   42    43     1     1     1
SMALL
USER_CHARGES


@<TRIPOS>ATOM
      1 C17        -9.9380  -44.0780   32.3390 C.ar       1 <1>        0.210
      2 C20        -7.4650  -44.7920   31.3410 C.ar       1 <1>        0.110
      3 C21        -8.5840  -45.5640   31.0680 C.ar       1 <1>        0.230
      4 C16        -9.8330  -45.1980   31.5350 C.ar       1 <1>        0.060
      5 C18        -8.8360  -43.2880   32.6200 C.ar       1 <1>        0.160
      6 C19        -7.6280  -43.6740   32.1130 C.ar       1 <1>        0.100
      7 H          -6.7601  -43.0640   32.3360 H          1 <1>        0.000
      8 H         -10.9020  -43.8130   32.7580 H          1 <1>        0.000
      9 H          -8.4780  -46.4683   30.4798 H          1 <1>        0.000
     10 N1         -6.2510  -45.1330   30.8600 N.pl3      1 <1>        0.560
     11 H2         -6.1450  -45.9777   30.2802 H          1 <1>        0.000
     12 H3         -5.4297  -44.5488   31.0721 H          1 <1>        0.000
     13 C1        -11.1520  -46.0800   29.8560 C.3        1 <1>       -0.000
     14 H2        -12.0401  -46.6971   29.6550 H          1 <1>        0.000
     15 O3        -10.9530  -45.9770   31.2680 O.3        1 <1>        0.450
     16 H5        -10.2691  -46.5459   29.3941 H          1 <1>        0.000
     17 N1        -12.2380  -42.9020   28.5840 N.pl3      1 <1>        0.470
     18 C1        -12.5090  -44.0570   29.1190 C.2        1 <1>        0.030
     19 C2        -11.3550  -44.7090   29.2780 C.2        1 <1>        0.030
     20 C3        -10.3190  -43.8020   28.7670 C.2        1 <1>        0.070
     21 C4        -10.9710  -42.7100   28.3610 C.2        1 <1>        0.080
     22 H1        -12.9610  -42.2040   28.3580 H          1 <1>        0.000
     23 H4         -9.2463  -43.9859   28.7290 H          1 <1>        0.000
     24 C1        -10.3570  -41.5120   27.7700 C.2        1 <1>        0.100
     25 O1        -10.9220  -40.4460   27.9620 O.2        1 <1>        0.020
     26 N1         -9.2200  -41.6200   27.0520 N.am       1 <1>        0.080
     27 H2         -8.7889  -42.5123   26.9180 H          1 <1>        0.000
     28 H3         -8.8011  -40.8062   26.6491 H          1 <1>        0.000
     29 N1         -8.7690  -42.3450   34.9000 N.4        1 <1>        0.470
     30 C1         -8.9670  -42.0280   33.4680 C.3        1 <1>        0.070
     31 H2         -8.8530  -41.5204   35.4737 H          1 <1>        0.000
     32 H3         -9.4509  -43.0119   35.2260 H          1 <1>        0.000
     33 H6         -8.2161  -41.2991   33.1291 H          1 <1>        0.000
     34 H7         -9.9666  -41.5992   33.3041 H          1 <1>        0.000
     35 H1         -7.8558  -42.7381   35.0660 H          1 <1>        0.000
     36 C1        -13.8680  -44.5730   29.4940 C.3        1 <1>        0.040
     37 C2        -14.0650  -44.4400   31.0010 C.3        1 <1>        0.280
     38 H3        -13.9510  -45.6311   29.2050 H          1 <1>        0.000
     39 H4        -14.6389  -43.9880   28.9710 H          1 <1>        0.000
     40 H6        -13.9810  -43.3820   31.2900 H          1 <1>        0.000
     41 H7        -13.2941  -45.0250   31.5240 H          1 <1>        0.000
     42 H8        -15.0608  -44.8179   31.2759 H          1 <1>        0.000
@<TRIPOS>BOND
     1    3    2 ar 
     2    3    4 ar 
     3    2    6 ar 
     4    4    1 ar 
     5    6    7 1  
     6    6    5 ar 
     7    1    5 ar 
     8    1    8 1  
     9    3    9 1  
    10   10   11 1  
    11   10   12 1  
    12    2   10 1  
    13   13   14 1  
    14   13   15 1  
    15   13   16 1  
    16    4   15 1  
    17   17   18 1  
    18   17   21 1  
    19   18   19 2  
    20   19   20 1  
    21   20   21 2  
    22   17   22 1  
    23   20   23 1  
    24   13   19 1  
    25   24   25 2  
    26   24   26 am 
    27   26   27 1  
    28   26   28 1  
    29   21   24 1  
    30   29   30 1  
    31   29   31 1  
    32   29   32 1  
    33   30   33 1  
    34   30   34 1  
    35   29   35 1  
    36    5   30 1  
    37   37   36 1  
    38   36   38 1  
    39   36   39 1  
    40   37   40 1  
    41   37   41 1  
    42   37   42 1  
    43   18   36 1  
# Name:          No_7_52
# Creation time: Thu Mar 21 11:47:48 2024


@<TRIPOS>MOLECULE
000002_000002
   42    43     1     1     1
SMALL
USER_CHARGES


@<TRIPOS>ATOM
      1 C17        -9.9380  -44.0780   32.3390 C.ar       1 <1>        0.210
      2 C20        -7.4650  -44.7920   31.3410 C.ar       1 <1>        0.110
      3 C21        -8.5840  -45.5640   31.0680 C.ar       1 <1>        0.230
      4 C16        -9.8330  -45.1980   31.5350 C.ar       1 <1>        0.060
      5 C18        -8.8360  -43.2880   32.6200 C.ar       1 <1>        0.160
      6 C19        -7.6280  -43.6740   32.1130 C.ar       1 <1>        0.100
      7 H          -6.7601  -43.0640   32.3360 H          1 <1>        0.000
      8 H         -10.9020  -43.8130   32.7580 H          1 <1>        0.000
      9 H          -8.4780  -46.4683   30.4798 H          1 <1>        0.000
     10 N1         -6.2510  -45.1330   30.8600 N.pl3      1 <1>        0.560
     11 H2         -6.1450  -45.9777   30.2802 H          1 <1>        0.000
     12 H3         -5.4297  -44.5488   31.0721 H          1 <1>        0.000
     13 C1        -11.1520  -46.0800   29.8560 C.3        1 <1>       -0.000
     14 H2        -12.0401  -46.6971   29.6550 H          1 <1>        0.000
     15 O3        -10.9530  -45.9770   31.2680 O.3        1 <1>        0.450
     16 H5        -10.2691  -46.5459   29.3941 H          1 <1>        0.000
     17 N1        -12.2380  -42.9020   28.5840 N.pl3      1 <1>        0.470
     18 C1        -12.5090  -44.0570   29.1190 C.2        1 <1>        0.030
     19 C2        -11.3550  -44.7090   29.2780 C.2        1 <1>        0.030
     20 C3        -10.3190  -43.8020   28.7670 C.2        1 <1>        0.070
     21 C4        -10.9710  -42.7100   28.3610 C.2        1 <1>        0.080
     22 H1        -12.9610  -42.2040   28.3580 H          1 <1>        0.000
     23 H4         -9.2463  -43.9859   28.7290 H          1 <1>        0.000
     24 C1        -10.3570  -41.5120   27.7700 C.2        1 <1>        0.100
     25 O1        -10.9220  -40.4460   27.9620 O.2        1 <1>        0.020
     26 N1         -9.2200  -41.6200   27.0520 N.am       1 <1>        0.080
     27 H2         -8.7889  -42.5123   26.9180 H          1 <1>        0.000
     28 H3         -8.8011  -40.8062   26.6491 H          1 <1>        0.000
     29 N1         -8.7690  -42.3450   34.9000 N.4        1 <1>        0.470
     30 C1         -8.9670  -42.0280   33.4680 C.3        1 <1>        0.070
     31 H2         -8.8530  -41.5204   35.4737 H          1 <1>        0.000
     32 H3         -9.4509  -43.0119   35.2260 H          1 <1>        0.000
     33 H6         -8.2161  -41.2991   33.1291 H          1 <1>        0.000
     34 H7         -9.9666  -41.5992   33.3041 H          1 <1>        0.000
     35 H1         -7.8558  -42.7381   35.0660 H          1 <1>        0.000
     36 C1        -13.8680  -44.5730   29.4940 C.3        1 <1>        0.040
     37 C2        -14.3430  -43.8760   30.7660 C.3        1 <1>        0.270
     38 H3        -13.8140  -45.6578   29.6681 H          1 <1>        0.000
     39 H4        -14.5758  -44.3681   28.6773 H          1 <1>        0.000
     40 H6        -14.3980  -42.7914   30.5909 H          1 <1>        0.000
     41 H7        -13.6353  -44.0812   31.5828 H          1 <1>        0.000
     42 H8        -15.3390  -44.2540   31.0400 H          1 <1>        0.000
@<TRIPOS>BOND
     1    3    2 ar 
     2    3    4 ar 
     3    2    6 ar 
     4    4    1 ar 
     5    6    7 1  
     6    6    5 ar 
     7    1    5 ar 
     8    1    8 1  
     9    3    9 1  
    10   10   11 1  
    11   10   12 1  
    12    2   10 1  
    13   13   14 1  
    14   13   15 1  
    15   13   16 1  
    16    4   15 1  
    17   17   18 1  
    18   17   21 1  
    19   18   19 2  
    20   19   20 1  
    21   20   21 2  
    22   17   22 1  
    23   20   23 1  
    24   13   19 1  
    25   24   25 2  
    26   24   26 am 
    27   26   27 1  
    28   26   28 1  
    29   21   24 1  
    30   29   30 1  
    31   29   31 1  
    32   29   32 1  
    33   30   33 1  
    34   30   34 1  
    35   29   35 1  
    36    5   30 1  
    37   37   36 1  
    38   36   38 1  
    39   36   39 1  
    40   37   40 1  
    41   37   41 1  
    42   37   42 1  
    43   18   36 1  
# Name:          No_7_86
# Creation time: Thu Mar 21 11:47:48 2024


@<TRIPOS>MOLECULE
000002_000003
   39    40     1     1     1
SMALL
USER_CHARGES


@<TRIPOS>ATOM
      1 C17        -9.9380  -44.0780   32.3390 C.ar       1 <1>        0.210
      2 C20        -7.4650  -44.7920   31.3410 C.ar       1 <1>        0.110
      3 C21        -8.5840  -45.5640   31.0680 C.ar       1 <1>        0.230
      4 C16        -9.8330  -45.1980   31.5350 C.ar       1 <1>        0.060
      5 C18        -8.8360  -43.2880   32.6200 C.ar       1 <1>        0.160
      6 C19        -7.6280  -43.6740   32.1130 C.ar       1 <1>        0.100
      7 H          -6.7601  -43.0640   32.3360 H          1 <1>        0.000
      8 H         -10.9020  -43.8130   32.7580 H          1 <1>        0.000
      9 H          -8.4780  -46.4683   30.4798 H          1 <1>        0.000
     10 N1         -6.2510  -45.1330   30.8600 N.pl3      1 <1>        0.560
     11 H2         -6.1450  -45.9777   30.2802 H          1 <1>        0.000
     12 H3         -5.4297  -44.5488   31.0721 H          1 <1>        0.000
     13 C1        -11.1520  -46.0800   29.8560 C.3        1 <1>       -0.000
     14 H2        -12.0401  -46.6971   29.6550 H          1 <1>        0.000
     15 O3        -10.9530  -45.9770   31.2680 O.3        1 <1>        0.450
     16 H5        -10.2691  -46.5459   29.3941 H          1 <1>        0.000
     17 N1        -12.2380  -42.9020   28.5840 N.pl3      1 <1>        0.470
     18 C1        -12.5090  -44.0570   29.1190 C.2        1 <1>        0.070
     19 C2        -11.3550  -44.7090   29.2780 C.2        1 <1>        0.030
     20 C3        -10.3190  -43.8020   28.7670 C.2        1 <1>        0.070
     21 C4        -10.9710  -42.7100   28.3610 C.2        1 <1>        0.080
     22 H1        -12.9610  -42.2040   28.3580 H          1 <1>        0.000
     23 H2        -13.4949  -44.4310   29.3910 H          1 <1>        0.000
     24 C1        -10.3570  -41.5120   27.7700 C.2        1 <1>        0.100
     25 O1        -10.9220  -40.4460   27.9620 O.2        1 <1>        0.020
     26 N1         -9.2200  -41.6200   27.0520 N.am       1 <1>        0.080
     27 H2         -8.7889  -42.5123   26.9180 H          1 <1>        0.000
     28 H3         -8.8011  -40.8062   26.6491 H          1 <1>        0.000
     29 N1         -8.7690  -42.3450   34.9000 N.4        1 <1>        0.470
     30 C1         -8.9670  -42.0280   33.4680 C.3        1 <1>        0.070
     31 H2         -8.8530  -41.5204   35.4737 H          1 <1>        0.000
     32 H3         -9.4509  -43.0119   35.2260 H          1 <1>        0.000
     33 H6         -8.2161  -41.2991   33.1291 H          1 <1>        0.000
     34 H7         -9.9666  -41.5992   33.3041 H          1 <1>        0.000
     35 H1         -7.8558  -42.7381   35.0660 H          1 <1>        0.000
     36 C1         -8.8400  -44.0550   28.7150 C.3        1 <1>        0.120
     37 H2         -8.6290  -45.0721   29.0770 H          1 <1>        0.000
     38 H3         -8.4870  -43.9550   27.6780 H          1 <1>        0.000
     39 H4         -8.3201  -43.3242   29.3519 H          1 <1>        0.000
@<TRIPOS>BOND
     1    3    2 ar 
     2    3    4 ar 
     3    2    6 ar 
     4    4    1 ar 
     5    6    7 1  
     6    6    5 ar 
     7    1    5 ar 
     8    1    8 1  
     9    3    9 1  
    10   10   11 1  
    11   10   12 1  
    12    2   10 1  
    13   13   14 1  
    14   13   15 1  
    15   13   16 1  
    16    4   15 1  
    17   17   18 1  
    18   17   21 1  
    19   18   19 2  
    20   19   20 1  
    21   20   21 2  
    22   17   22 1  
    23   18   23 1  
    24   13   19 1  
    25   24   25 2  
    26   24   26 am 
    27   26   27 1  
    28   26   28 1  
    29   21   24 1  
    30   29   30 1  
    31   29   31 1  
    32   29   32 1  
    33   30   33 1  
    34   30   34 1  
    35   29   35 1  
    36    5   30 1  
    37   36   37 1  
    38   36   38 1  
    39   36   39 1  
    40   20   36 1  
# Name:          No_7_50
# Creation time: Thu Mar 21 11:47:48 2024


@<TRIPOS>MOLECULE
000002_000004
   42    43     1     1     1
SMALL
USER_CHARGES


@<TRIPOS>ATOM
      1 C17        -9.9380  -44.0780   32.3390 C.ar       1 <1>        0.210
      2 C20        -7.4650  -44.7920   31.3410 C.ar       1 <1>        0.110
      3 C21        -8.5840  -45.5640   31.0680 C.ar       1 <1>        0.230
      4 C16        -9.8330  -45.1980   31.5350 C.ar       1 <1>        0.060
      5 C18        -8.8360  -43.2880   32.6200 C.ar       1 <1>        0.160
      6 C19        -7.6280  -43.6740   32.1130 C.ar       1 <1>        0.100
      7 H          -6.7601  -43.0640   32.3360 H          1 <1>        0.000
      8 H         -10.9020  -43.8130   32.7580 H          1 <1>        0.000
      9 H          -8.4780  -46.4683   30.4798 H          1 <1>        0.000
     10 N1         -6.2510  -45.1330   30.8600 N.pl3      1 <1>        0.560
     11 H2         -6.1450  -45.9777   30.2802 H          1 <1>        0.000
     12 H3         -5.4297  -44.5488   31.0721 H          1 <1>        0.000
     13 C1        -11.1520  -46.0800   29.8560 C.3        1 <1>       -0.000
     14 H2        -12.0401  -46.6971   29.6550 H          1 <1>        0.000
     15 O3        -10.9530  -45.9770   31.2680 O.3        1 <1>        0.450
     16 H5        -10.2691  -46.5459   29.3941 H          1 <1>        0.000
     17 N1        -12.2380  -42.9020   28.5840 N.pl3      1 <1>        0.470
     18 C1        -12.5090  -44.0570   29.1190 C.2        1 <1>        0.030
     19 C2        -11.3550  -44.7090   29.2780 C.2        1 <1>        0.030
     20 C3        -10.3190  -43.8020   28.7670 C.2        1 <1>        0.070
     21 C4        -10.9710  -42.7100   28.3610 C.2        1 <1>        0.080
     22 H1        -12.9610  -42.2040   28.3580 H          1 <1>        0.000
     23 H4         -9.2463  -43.9859   28.7290 H          1 <1>        0.000
     24 C1        -10.3570  -41.5120   27.7700 C.2        1 <1>        0.100
     25 O1        -10.9220  -40.4460   27.9620 O.2        1 <1>        0.020
     26 N1         -9.2200  -41.6200   27.0520 N.am       1 <1>        0.080
     27 H2         -8.7889  -42.5123   26.9180 H          1 <1>        0.000
     28 H3         -8.8011  -40.8062   26.6491 H          1 <1>        0.000
     29 N1         -8.7690  -42.3450   34.9000 N.4        1 <1>        0.470
     30 C1         -8.9670  -42.0280   33.4680 C.3        1 <1>        0.070
     31 H2         -8.8530  -41.5204   35.4737 H          1 <1>        0.000
     32 H3         -9.4509  -43.0119   35.2260 H          1 <1>        0.000
     33 H6         -8.2161  -41.2991   33.1291 H          1 <1>        0.000
     34 H7         -9.9666  -41.5992   33.3041 H          1 <1>        0.000
     35 H1         -7.8558  -42.7381   35.0660 H          1 <1>        0.000
     36 C1        -13.8680  -44.5730   29.4940 C.3        1 <1>        0.040
     37 C2        -13.7910  -45.2720   30.8480 C.3        1 <1>        0.250
     38 H3        -14.2120  -45.2869   28.7311 H          1 <1>        0.000
     39 H4        -14.5747  -43.7323   29.5550 H          1 <1>        0.000
     40 H6        -13.4466  -44.5582   31.6108 H          1 <1>        0.000
     41 H7        -13.0843  -46.1127   30.7860 H          1 <1>        0.000
     42 H8        -14.7870  -45.6500   31.1220 H          1 <1>        0.000
@<TRIPOS>BOND
     1    3    2 ar 
     2    3    4 ar 
     3    2    6 ar 
     4    4    1 ar 
     5    6    7 1  
     6    6    5 ar 
     7    1    5 ar 
     8    1    8 1  
     9    3    9 1  
    10   10   11 1  
    11   10   12 1  
    12    2   10 1  
    13   13   14 1  
    14   13   15 1  
    15   13   16 1  
    16    4   15 1  
    17   17   18 1  
    18   17   21 1  
    19   18   19 2  
    20   19   20 1  
    21   20   21 2  
    22   17   22 1  
    23   20   23 1  
    24   13   19 1  
    25   24   25 2  
    26   24   26 am 
    27   26   27 1  
    28   26   28 1  
    29   21   24 1  
    30   29   30 1  
    31   29   31 1  
    32   29   32 1  
    33   30   33 1  
    34   30   34 1  
    35   29   35 1  
    36    5   30 1  
    37   37   36 1  
    38   36   38 1  
    39   36   39 1  
    40   37   40 1  
    41   37   41 1  
    42   37   42 1  
    43   18   36 1  
# Name:          No_7_54
# Creation time: Thu Mar 21 11:47:48 2024


@<TRIPOS>MOLECULE
000002_000005
   42    43     1     1     1
SMALL
USER_CHARGES


@<TRIPOS>ATOM
      1 C17        -9.9380  -44.0780   32.3390 C.ar       1 <1>        0.210
      2 C20        -7.4650  -44.7920   31.3410 C.ar       1 <1>        0.110
      3 C21        -8.5840  -45.5640   31.0680 C.ar       1 <1>        0.230
      4 C16        -9.8330  -45.1980   31.5350 C.ar       1 <1>        0.060
      5 C18        -8.8360  -43.2880   32.6200 C.ar       1 <1>        0.160
      6 C19        -7.6280  -43.6740   32.1130 C.ar       1 <1>        0.100
      7 H          -6.7601  -43.0640   32.3360 H          1 <1>        0.000
      8 H         -10.9020  -43.8130   32.7580 H          1 <1>        0.000
      9 H          -8.4780  -46.4683   30.4798 H          1 <1>        0.000
     10 N1         -6.2510  -45.1330   30.8600 N.pl3      1 <1>        0.560
     11 H2         -6.1450  -45.9777   30.2802 H          1 <1>        0.000
     12 H3         -5.4297  -44.5488   31.0721 H          1 <1>        0.000
     13 C1        -11.1520  -46.0800   29.8560 C.3        1 <1>       -0.000
     14 H2        -12.0401  -46.6971   29.6550 H          1 <1>        0.000
     15 O3        -10.9530  -45.9770   31.2680 O.3        1 <1>        0.450
     16 H5        -10.2691  -46.5459   29.3941 H          1 <1>        0.000
     17 N1        -12.2380  -42.9020   28.5840 N.pl3      1 <1>        0.470
     18 C1        -12.5090  -44.0570   29.1190 C.2        1 <1>        0.030
     19 C2        -11.3550  -44.7090   29.2780 C.2        1 <1>        0.030
     20 C3        -10.3190  -43.8020   28.7670 C.2        1 <1>        0.070
     21 C4        -10.9710  -42.7100   28.3610 C.2        1 <1>        0.080
     22 H1        -12.9610  -42.2040   28.3580 H          1 <1>        0.000
     23 H4         -9.2463  -43.9859   28.7290 H          1 <1>        0.000
     24 C1        -10.3570  -41.5120   27.7700 C.2        1 <1>        0.100
     25 O1        -10.9220  -40.4460   27.9620 O.2        1 <1>        0.020
     26 N1         -9.2200  -41.6200   27.0520 N.am       1 <1>        0.080
     27 H2         -8.7889  -42.5123   26.9180 H          1 <1>        0.000
     28 H3         -8.8011  -40.8062   26.6491 H          1 <1>        0.000
     29 N1         -8.7690  -42.3450   34.9000 N.4        1 <1>        0.470
     30 C1         -8.9670  -42.0280   33.4680 C.3        1 <1>        0.070
     31 H2         -8.8530  -41.5204   35.4737 H          1 <1>        0.000
     32 H3         -9.4509  -43.0119   35.2260 H          1 <1>        0.000
     33 H6         -8.2161  -41.2991   33.1291 H          1 <1>        0.000
     34 H7         -9.9666  -41.5992   33.3041 H          1 <1>        0.000
     35 H1         -7.8558  -42.7381   35.0660 H          1 <1>        0.000
     36 C1        -13.8680  -44.5730   29.4940 C.3        1 <1>        0.040
     37 C2        -14.6470  -43.4760   30.2150 C.3        1 <1>        0.200
     38 H3        -13.7599  -45.4437   30.1575 H          1 <1>        0.000
     39 H4        -14.4107  -44.8699   28.5844 H          1 <1>        0.000
     40 H6        -14.7551  -42.6053   29.5515 H          1 <1>        0.000
     41 H7        -14.1043  -43.1791   31.1246 H          1 <1>        0.000
     42 H8        -15.6428  -43.8539   30.4899 H          1 <1>        0.000
@<TRIPOS>BOND
     1    3    2 ar 
     2    3    4 ar 
     3    2    6 ar 
     4    4    1 ar 
     5    6    7 1  
     6    6    5 ar 
     7    1    5 ar 
     8    1    8 1  
     9    3    9 1  
    10   10   11 1  
    11   10   12 1  
    12    2   10 1  
    13   13   14 1  
    14   13   15 1  
    15   13   16 1  
    16    4   15 1  
    17   17   18 1  
    18   17   21 1  
    19   18   19 2  
    20   19   20 1  
    21   20   21 2  
    22   17   22 1  
    23   20   23 1  
    24   13   19 1  
    25   24   25 2  
    26   24   26 am 
    27   26   27 1  
    28   26   28 1  
    29   21   24 1  
    30   29   30 1  
    31   29   31 1  
    32   29   32 1  
    33   30   33 1  
    34   30   34 1  
    35   29   35 1  
    36    5   30 1  
    37   37   36 1  
    38   36   38 1  
    39   36   39 1  
    40   37   40 1  
    41   37   41 1  
    42   37   42 1  
    43   18   36 1  
# Name:          No_7_167
# Creation time: Thu Mar 21 12:10:41 2024


@<TRIPOS>MOLECULE
000001_000001
   46    47     1     1     1
SMALL
USER_CHARGES


@<TRIPOS>ATOM
      1 C17        -9.9380  -44.0780   32.3390 C.ar       1 <1>        0.210
      2 C20        -7.4650  -44.7920   31.3410 C.ar       1 <1>        0.110
      3 C21        -8.5840  -45.5640   31.0680 C.ar       1 <1>        0.230
      4 C16        -9.8330  -45.1980   31.5350 C.ar       1 <1>        0.100
      5 C18        -8.8360  -43.2880   32.6200 C.ar       1 <1>        0.210
      6 C19        -7.6280  -43.6740   32.1130 C.ar       1 <1>        0.060
      7 H         -10.9020  -43.8130   32.7580 H          1 <1>        0.000
      8 H          -8.4780  -46.4683   30.4798 H          1 <1>        0.000
      9 H          -8.9290  -42.3920   33.2230 H          1 <1>        0.000
     10 C1         -6.4070  -42.8150   32.4270 C.3        1 <1>        0.060
     11 H2         -6.7101  -41.9629   33.0531 H          1 <1>        0.000
     12 O3         -5.4390  -43.6010   33.1270 O.3        1 <1>        0.700
     13 H4         -5.9689  -42.4439   31.4887 H          1 <1>        0.000
     14 H6         -5.1729  -44.3402   32.5929 H          1 <1>        0.000
     15 N         -10.9740  -45.9910   31.2630 N.am       1 <1>        0.420
     16 C         -11.9460  -45.5520   30.4340 C.2        1 <1>        0.050
     17 O         -12.9400  -46.2150   30.1820 O.2        1 <1>        0.350
     18 C4        -11.7830  -44.1910   29.8030 C.3        1 <1>       -0.020
     19 H2        -11.0559  -46.8893   31.6947 H          1 <1>        0.000
     20 H3        -11.7080  -43.4251   30.5889 H          1 <1>        0.000
     21 H5        -10.8671  -44.1720   29.1941 H          1 <1>        0.000
     22 N1         -6.2510  -45.1330   30.8600 N.pl3      1 <1>        0.560
     23 H2         -5.6829  -44.4379   30.3549 H          1 <1>        0.000
     24 H3         -5.8921  -46.0888   30.9960 H          1 <1>        0.000
     25 O1        -14.0310  -43.2330   29.4020 O.3        1 <1>        0.100
     26 C1        -14.7900  -43.1500   28.3040 C.2        1 <1>        0.010
     27 C2        -14.2770  -43.6720   27.1880 C.2        1 <1>        0.060
     28 C3        -12.9780  -44.1760   27.6260 C.2        1 <1>        0.090
     29 C4        -12.9530  -43.8610   28.9220 C.2        1 <1>        0.030
     30 H3        -12.2190  -44.6830   27.0320 H          1 <1>        0.000
     31 C1        -16.9100  -42.9890   29.5650 C.3        1 <1>        0.230
     32 C2        -16.1450  -42.5040   28.3370 C.3        1 <1>        0.020
     33 H3        -16.3529  -42.7189   30.4742 H          1 <1>        0.000
     34 H4        -17.9025  -42.5152   29.5880 H          1 <1>        0.000
     35 H5        -17.0261  -44.0818   29.5170 H          1 <1>        0.000
     36 H6        -16.7017  -42.7739   27.4275 H          1 <1>        0.000
     37 H8        -16.0290  -41.4112   28.3850 H          1 <1>        0.000
     38 C1        -14.8800  -43.7320   25.8150 C.3        1 <1>       -0.000
     39 C2        -14.4900  -42.4970   25.0400 C.2        1 <1>        0.060
     40 C3        -14.8800  -41.1300   25.5500 C.3        1 <1>        0.150
     41 O4        -13.8640  -42.6010   24.0090 O.2        1 <1>        0.560
     42 H5        -15.9758  -43.7820   25.8970 H          1 <1>        0.000
     43 H7        -14.5101  -44.6257   25.2912 H          1 <1>        0.000
     44 H8        -14.4382  -40.9701   26.5446 H          1 <1>        0.000
     45 H9        -15.9757  -41.0640   25.6210 H          1 <1>        0.000
     46 H10       -14.5100  -40.3600   24.8570 H          1 <1>        0.000
@<TRIPOS>BOND
     1    3    2 ar 
     2    3    4 ar 
     3    2    6 ar 
     4    4    1 ar 
     5    6    5 ar 
     6    1    5 ar 
     7    1    7 1  
     8    3    8 1  
     9    5    9 1  
    10   10   11 1  
    11   10   12 1  
    12   10   13 1  
    13   12   14 1  
    14    6   10 1  
    15   15   16 am 
    16   16   17 2  
    17   16   18 1  
    18   15   19 1  
    19   18   20 1  
    20   18   21 1  
    21    4   15 1  
    22   22   23 1  
    23   22   24 1  
    24    2   22 1  
    25   25   26 1  
    26   25   29 1  
    27   26   27 2  
    28   27   28 1  
    29   28   29 2  
    30   28   30 1  
    31   18   29 1  
    32   32   31 1  
    33   31   33 1  
    34   31   34 1  
    35   31   35 1  
    36   32   36 1  
    37   32   37 1  
    38   26   32 1  
    39   39   38 1  
    40   39   40 1  
    41   39   41 2  
    42   38   42 1  
    43   38   43 1  
    44   40   44 1  
    45   40   45 1  
    46   40   46 1  
    47   27   38 1  
# Name:          No_7_166
# Creation time: Thu Mar 21 12:10:41 2024


@<TRIPOS>MOLECULE
000001_000002
   46    47     1     1     1
SMALL
USER_CHARGES


@<TRIPOS>ATOM
      1 C17        -9.9380  -44.0780   32.3390 C.ar       1 <1>        0.210
      2 C20        -7.4650  -44.7920   31.3410 C.ar       1 <1>        0.110
      3 C21        -8.5840  -45.5640   31.0680 C.ar       1 <1>        0.230
      4 C16        -9.8330  -45.1980   31.5350 C.ar       1 <1>        0.100
      5 C18        -8.8360  -43.2880   32.6200 C.ar       1 <1>        0.210
      6 C19        -7.6280  -43.6740   32.1130 C.ar       1 <1>        0.060
      7 H         -10.9020  -43.8130   32.7580 H          1 <1>        0.000
      8 H          -8.4780  -46.4683   30.4798 H          1 <1>        0.000
      9 H          -8.9290  -42.3920   33.2230 H          1 <1>        0.000
     10 C1         -6.4070  -42.8150   32.4270 C.3        1 <1>        0.060
     11 H2         -6.7101  -41.9629   33.0531 H          1 <1>        0.000
     12 O3         -5.4390  -43.6010   33.1270 O.3        1 <1>        0.700
     13 H4         -5.9689  -42.4439   31.4887 H          1 <1>        0.000
     14 H6         -5.1729  -44.3402   32.5929 H          1 <1>        0.000
     15 N         -10.9740  -45.9910   31.2630 N.am       1 <1>        0.420
     16 C         -11.9460  -45.5520   30.4340 C.2        1 <1>        0.050
     17 O         -12.9400  -46.2150   30.1820 O.2        1 <1>        0.350
     18 C4        -11.7830  -44.1910   29.8030 C.3        1 <1>       -0.020
     19 H2        -11.0559  -46.8893   31.6947 H          1 <1>        0.000
     20 H3        -11.7080  -43.4251   30.5889 H          1 <1>        0.000
     21 H5        -10.8671  -44.1720   29.1941 H          1 <1>        0.000
     22 N1         -6.2510  -45.1330   30.8600 N.pl3      1 <1>        0.560
     23 H2         -5.6829  -44.4379   30.3549 H          1 <1>        0.000
     24 H3         -5.8921  -46.0888   30.9960 H          1 <1>        0.000
     25 O1        -14.0310  -43.2330   29.4020 O.3        1 <1>        0.100
     26 C1        -14.7900  -43.1500   28.3040 C.2        1 <1>        0.010
     27 C2        -14.2770  -43.6720   27.1880 C.2        1 <1>        0.060
     28 C3        -12.9780  -44.1760   27.6260 C.2        1 <1>        0.090
     29 C4        -12.9530  -43.8610   28.9220 C.2        1 <1>        0.030
     30 H3        -12.2190  -44.6830   27.0320 H          1 <1>        0.000
     31 C1        -16.9100  -42.9890   29.5650 C.3        1 <1>        0.230
     32 C2        -16.1450  -42.5040   28.3370 C.3        1 <1>        0.020
     33 H3        -16.3529  -42.7189   30.4742 H          1 <1>        0.000
     34 H4        -17.9025  -42.5152   29.5880 H          1 <1>        0.000
     35 H5        -17.0261  -44.0818   29.5170 H          1 <1>        0.000
     36 H6        -16.7017  -42.7739   27.4275 H          1 <1>        0.000
     37 H8        -16.0290  -41.4112   28.3850 H          1 <1>        0.000
     38 C1        -14.8800  -43.7320   25.8150 C.3        1 <1>       -0.000
     39 C2        -14.6790  -42.4070   25.1190 C.2        1 <1>        0.060
     40 C3        -15.2550  -41.1460   25.7150 C.3        1 <1>        0.080
     41 O4        -14.0550  -42.3570   24.0830 O.2        1 <1>        0.560
     42 H5        -15.9563  -43.9441   25.8960 H          1 <1>        0.000
     43 H7        -14.3920  -44.5291   25.2349 H          1 <1>        0.000
     44 H8        -14.8300  -40.9860   26.7169 H          1 <1>        0.000
     45 H9        -16.3481  -41.2420   25.7920 H          1 <1>        0.000
     46 H10       -15.0061  -40.2894   25.0713 H          1 <1>        0.000
@<TRIPOS>BOND
     1    3    2 ar 
     2    3    4 ar 
     3    2    6 ar 
     4    4    1 ar 
     5    6    5 ar 
     6    1    5 ar 
     7    1    7 1  
     8    3    8 1  
     9    5    9 1  
    10   10   11 1  
    11   10   12 1  
    12   10   13 1  
    13   12   14 1  
    14    6   10 1  
    15   15   16 am 
    16   16   17 2  
    17   16   18 1  
    18   15   19 1  
    19   18   20 1  
    20   18   21 1  
    21    4   15 1  
    22   22   23 1  
    23   22   24 1  
    24    2   22 1  
    25   25   26 1  
    26   25   29 1  
    27   26   27 2  
    28   27   28 1  
    29   28   29 2  
    30   28   30 1  
    31   18   29 1  
    32   32   31 1  
    33   31   33 1  
    34   31   34 1  
    35   31   35 1  
    36   32   36 1  
    37   32   37 1  
    38   26   32 1  
    39   39   38 1  
    40   39   40 1  
    41   39   41 2  
    42   38   42 1  
    43   38   43 1  
    44   40   44 1  
    45   40   45 1  
    46   40   46 1  
    47   27   38 1  
# Name:          No_6_170
# Creation time: Thu Mar 21 12:10:41 2024


@<TRIPOS>MOLECULE
000001_000003
   41    42     1     1     1
SMALL
USER_CHARGES


@<TRIPOS>ATOM
      1 C17        -9.9380  -44.0780   32.3390 C.ar       1 <1>        0.210
      2 C20        -7.4650  -44.7920   31.3410 C.ar       1 <1>        0.110
      3 C21        -8.5840  -45.5640   31.0680 C.ar       1 <1>        0.230
      4 C16        -9.8330  -45.1980   31.5350 C.ar       1 <1>        0.100
      5 C18        -8.8360  -43.2880   32.6200 C.ar       1 <1>        0.210
      6 C19        -7.6280  -43.6740   32.1130 C.ar       1 <1>        0.060
      7 H         -10.9020  -43.8130   32.7580 H          1 <1>        0.000
      8 H          -8.4780  -46.4683   30.4798 H          1 <1>        0.000
      9 H          -8.9290  -42.3920   33.2230 H          1 <1>        0.000
     10 C1         -6.4070  -42.8150   32.4270 C.3        1 <1>        0.060
     11 H2         -6.7101  -41.9629   33.0531 H          1 <1>        0.000
     12 O3         -5.4390  -43.6010   33.1270 O.3        1 <1>        0.700
     13 H4         -5.9689  -42.4439   31.4887 H          1 <1>        0.000
     14 H6         -5.1729  -44.3402   32.5929 H          1 <1>        0.000
     15 N         -10.9740  -45.9910   31.2630 N.am       1 <1>        0.420
     16 C         -11.9460  -45.5520   30.4340 C.2        1 <1>        0.050
     17 O         -12.9400  -46.2150   30.1820 O.2        1 <1>        0.350
     18 C4        -11.7830  -44.1910   29.8030 C.3        1 <1>       -0.020
     19 H2        -11.0559  -46.8893   31.6947 H          1 <1>        0.000
     20 H3        -11.7080  -43.4251   30.5889 H          1 <1>        0.000
     21 H5        -10.8671  -44.1720   29.1941 H          1 <1>        0.000
     22 N1         -6.2510  -45.1330   30.8600 N.pl3      1 <1>        0.560
     23 H2         -5.6829  -44.4379   30.3549 H          1 <1>        0.000
     24 H3         -5.8921  -46.0888   30.9960 H          1 <1>        0.000
     25 O1        -12.8400  -43.8500   27.5900 O.3        1 <1>        0.210
     26 C1        -14.0840  -43.5170   27.2290 C.2        1 <1>        0.060
     27 C2        -14.9560  -43.3220   28.2210 C.2        1 <1>        0.080
     28 C3        -14.1560  -43.5650   29.4180 C.2        1 <1>        0.040
     29 C4        -12.9530  -43.8610   28.9220 C.2        1 <1>        0.030
     30 H2        -16.0084  -43.0491   28.1590 H          1 <1>        0.000
     31 H3        -14.4711  -43.5150   30.4592 H          1 <1>        0.000
     32 C1        -14.4680  -43.3730   25.7860 C.3        1 <1>        0.030
     33 C2        -14.1680  -44.6750   25.0470 C.3        1 <1>        0.180
     34 C3        -14.5590  -44.5290   23.5790 C.3        1 <1>        0.310
     35 H5        -13.8907  -42.5536   25.3328 H          1 <1>        0.000
     36 H6        -15.5424  -43.1491   25.7120 H          1 <1>        0.000
     37 H7        -14.7449  -45.4948   25.4999 H          1 <1>        0.000
     38 H8        -13.0936  -44.8991   25.1210 H          1 <1>        0.000
     39 H9        -14.3420  -45.4670   23.0470 H          1 <1>        0.000
     40 H10       -13.9821  -43.7092   23.1261 H          1 <1>        0.000
     41 H11       -15.6335  -44.3049   23.5060 H          1 <1>        0.000
@<TRIPOS>BOND
     1    3    2 ar 
     2    3    4 ar 
     3    2    6 ar 
     4    4    1 ar 
     5    6    5 ar 
     6    1    5 ar 
     7    1    7 1  
     8    3    8 1  
     9    5    9 1  
    10   10   11 1  
    11   10   12 1  
    12   10   13 1  
    13   12   14 1  
    14    6   10 1  
    15   15   16 am 
    16   16   17 2  
    17   16   18 1  
    18   15   19 1  
    19   18   20 1  
    20   18   21 1  
    21    4   15 1  
    22   22   23 1  
    23   22   24 1  
    24    2   22 1  
    25   25   26 1  
    26   25   29 1  
    27   26   27 2  
    28   27   28 1  
    29   28   29 2  
    30   27   30 1  
    31   28   31 1  
    32   18   29 1  
    33   33   32 1  
    34   33   34 1  
    35   32   35 1  
    36   32   36 1  
    37   33   37 1  
    38   33   38 1  
    39   34   39 1  
    40   34   40 1  
    41   34   41 1  
    42   26   32 1  
# Name:          No_7_5
# Creation time: Thu Mar 21 12:10:41 2024


@<TRIPOS>MOLECULE
000001_000004
   41    42     1     1     1
SMALL
USER_CHARGES


@<TRIPOS>ATOM
      1 C17        -9.9380  -44.0780   32.3390 C.ar       1 <1>        0.210
      2 C20        -7.4650  -44.7920   31.3410 C.ar       1 <1>        0.110
      3 C21        -8.5840  -45.5640   31.0680 C.ar       1 <1>        0.230
      4 C16        -9.8330  -45.1980   31.5350 C.ar       1 <1>        0.100
      5 C18        -8.8360  -43.2880   32.6200 C.ar       1 <1>        0.210
      6 C19        -7.6280  -43.6740   32.1130 C.ar       1 <1>        0.060
      7 H         -10.9020  -43.8130   32.7580 H          1 <1>        0.000
      8 H          -8.4780  -46.4683   30.4798 H          1 <1>        0.000
      9 H          -8.9290  -42.3920   33.2230 H          1 <1>        0.000
     10 C1         -6.4070  -42.8150   32.4270 C.3        1 <1>        0.060
     11 H2         -6.7101  -41.9629   33.0531 H          1 <1>        0.000
     12 O3         -5.4390  -43.6010   33.1270 O.3        1 <1>        0.700
     13 H4         -5.9689  -42.4439   31.4887 H          1 <1>        0.000
     14 H6         -5.1729  -44.3402   32.5929 H          1 <1>        0.000
     15 N         -10.9740  -45.9910   31.2630 N.am       1 <1>        0.420
     16 C         -11.9460  -45.5520   30.4340 C.2        1 <1>        0.050
     17 O         -12.9400  -46.2150   30.1820 O.2        1 <1>        0.350
     18 C4        -11.7830  -44.1910   29.8030 C.3        1 <1>       -0.020
     19 H2        -11.0559  -46.8893   31.6947 H          1 <1>        0.000
     20 H3        -11.7080  -43.4251   30.5889 H          1 <1>        0.000
     21 H5        -10.8671  -44.1720   29.1941 H          1 <1>        0.000
     22 N1         -6.2510  -45.1330   30.8600 N.pl3      1 <1>        0.560
     23 H2         -5.6829  -44.4379   30.3549 H          1 <1>        0.000
     24 H3         -5.8921  -46.0888   30.9960 H          1 <1>        0.000
     25 O1        -12.8400  -43.8500   27.5900 O.3        1 <1>        0.210
     26 C1        -14.0840  -43.5170   27.2290 C.2        1 <1>        0.060
     27 C2        -14.9560  -43.3220   28.2210 C.2        1 <1>        0.080
     28 C3        -14.1560  -43.5650   29.4180 C.2        1 <1>        0.040
     29 C4        -12.9530  -43.8610   28.9220 C.2        1 <1>        0.030
     30 H2        -16.0084  -43.0491   28.1590 H          1 <1>        0.000
     31 H3        -14.4711  -43.5150   30.4592 H          1 <1>        0.000
     32 C1        -14.4680  -43.3730   25.7860 C.3        1 <1>        0.030
     33 C2        -14.1680  -44.6750   25.0470 C.3        1 <1>        0.180
     34 C3        -14.5590  -44.5290   23.5790 C.3        1 <1>        0.310
     35 H5        -13.8907  -42.5536   25.3328 H          1 <1>        0.000
     36 H6        -15.5424  -43.1491   25.7120 H          1 <1>        0.000
     37 H7        -14.7449  -45.4948   25.4999 H          1 <1>        0.000
     38 H8        -13.0936  -44.8991   25.1210 H          1 <1>        0.000
     39 H9        -14.3420  -45.4670   23.0470 H          1 <1>        0.000
     40 H10       -13.9821  -43.7092   23.1261 H          1 <1>        0.000
     41 H11       -15.6335  -44.3049   23.5060 H          1 <1>        0.000
@<TRIPOS>BOND
     1    3    2 ar 
     2    3    4 ar 
     3    2    6 ar 
     4    4    1 ar 
     5    6    5 ar 
     6    1    5 ar 
     7    1    7 1  
     8    3    8 1  
     9    5    9 1  
    10   10   11 1  
    11   10   12 1  
    12   10   13 1  
    13   12   14 1  
    14    6   10 1  
    15   15   16 am 
    16   16   17 2  
    17   16   18 1  
    18   15   19 1  
    19   18   20 1  
    20   18   21 1  
    21    4   15 1  
    22   22   23 1  
    23   22   24 1  
    24    2   22 1  
    25   25   26 1  
    26   25   29 1  
    27   26   27 2  
    28   27   28 1  
    29   28   29 2  
    30   27   30 1  
    31   28   31 1  
    32   18   29 1  
    33   33   32 1  
    34   33   34 1  
    35   32   35 1  
    36   32   36 1  
    37   33   37 1  
    38   33   38 1  
    39   34   39 1  
    40   34   40 1  
    41   34   41 1  
    42   26   32 1  
# Name:          No_4_190
# Creation time: Thu Mar 21 12:10:41 2024


@<TRIPOS>MOLECULE
000002_000001
   51    53     1     1     1
SMALL
USER_CHARGES


@<TRIPOS>ATOM
      1 C17        -9.9380  -44.0780   32.3390 C.ar       1 <1>        0.210
      2 C20        -7.4650  -44.7920   31.3410 C.ar       1 <1>        0.110
      3 C21        -8.5840  -45.5640   31.0680 C.ar       1 <1>        0.230
      4 C16        -9.8330  -45.1980   31.5350 C.ar       1 <1>        0.100
      5 C18        -8.8360  -43.2880   32.6200 C.ar       1 <1>        0.160
      6 C19        -7.6280  -43.6740   32.1130 C.ar       1 <1>        0.060
      7 H         -10.9020  -43.8130   32.7580 H          1 <1>        0.000
      8 H          -6.4902  -45.0660   30.9541 H          1 <1>        0.000
      9 H          -8.4780  -46.4683   30.4798 H          1 <1>        0.000
     10 C1         -6.4070  -42.8150   32.4270 C.3        1 <1>        0.060
     11 H2         -6.7101  -41.9629   33.0531 H          1 <1>        0.000
     12 O3         -5.4390  -43.6010   33.1270 O.3        1 <1>        0.700
     13 H4         -5.9689  -42.4439   31.4887 H          1 <1>        0.000
     14 H6         -5.1729  -44.3402   32.5929 H          1 <1>        0.000
     15 N         -10.9740  -45.9910   31.2630 N.am       1 <1>        0.420
     16 C         -11.9460  -45.5520   30.4340 C.2        1 <1>        0.050
     17 O         -12.9400  -46.2150   30.1820 O.2        1 <1>        0.350
     18 C4        -11.7830  -44.1910   29.8030 C.3        1 <1>       -0.020
     19 H2        -11.0559  -46.8893   31.6947 H          1 <1>        0.000
     20 H3        -11.7080  -43.4251   30.5889 H          1 <1>        0.000
     21 H5        -10.8671  -44.1720   29.1941 H          1 <1>        0.000
     22 O1         -8.3000  -42.2670   34.7220 O.3        1 <1>        0.040
     23 C1         -8.9670  -42.0280   33.4680 C.3        1 <1>        0.030
     24 C2         -8.3560  -41.1380   35.6150 C.3        1 <1>        0.070
     25 H5         -8.5042  -41.1913   32.9242 H          1 <1>        0.000
     26 H6        -10.0360  -41.8180   33.6200 H          1 <1>        0.000
     27 H7         -7.8247  -41.4112   36.5386 H          1 <1>        0.000
     28 H8         -9.3955  -40.8861   35.8719 H          1 <1>        0.000
     29 H9         -7.8638  -40.2577   35.1758 H          1 <1>        0.000
     30 C1        -14.1630  -43.4420   25.4490 C.2        1 <1>        0.110
     31 N2        -15.4140  -43.1120   25.2860 N.pl3      1 <1>        0.350
     32 C2        -16.0830  -42.9740   26.3980 C.2        1 <1>        0.020
     33 C3        -15.3500  -43.2390   28.8570 C.2        1 <1>        0.030
     34 C4        -14.2530  -43.5450   29.5650 C.2        1 <1>        0.030
     35 C5        -12.9530  -43.8610   28.9220 C.2        1 <1>        0.030
     36 C6        -12.7890  -43.8630   27.5920 C.2        1 <1>        0.080
     37 C7        -13.9560  -43.5350   26.7640 C.2        1 <1>        0.100
     38 C8        -15.2310  -43.2250   27.3940 C.2        1 <1>        0.080
     39 H10       -13.4204  -43.6101   24.6704 H          1 <1>        0.000
     40 H4        -16.3011  -43.0070   29.3340 H          1 <1>        0.000
     41 H5        -14.3110  -43.5630   30.6523 H          1 <1>        0.000
     42 H7        -11.8328  -44.0961   27.1259 H          1 <1>        0.000
     43 H17       -17.1328  -42.7048   26.5051 H          1 <1>        0.000
     44 N         -16.0560  -41.2760   22.1550 N.am       1 <1>        0.560
     45 C         -15.5770  -41.6070   23.3740 C.2        1 <1>        0.080
     46 O         -14.8090  -40.8860   23.9930 O.2        1 <1>        0.110
     47 C4        -16.0130  -42.9170   23.9800 C.3        1 <1>        0.010
     48 H1        -16.6841  -41.8821   21.6669 H          1 <1>        0.000
     49 H2        -15.7839  -40.4127   21.7299 H          1 <1>        0.000
     50 H3        -17.1075  -42.9300   24.0891 H          1 <1>        0.000
     51 H5        -15.7080  -43.7471   23.3259 H          1 <1>        0.000
@<TRIPOS>BOND
     1    3    2 ar 
     2    3    4 ar 
     3    2    6 ar 
     4    4    1 ar 
     5    6    5 ar 
     6    1    5 ar 
     7    1    7 1  
     8    2    8 1  
     9    3    9 1  
    10   10   11 1  
    11   10   12 1  
    12   10   13 1  
    13   12   14 1  
    14    6   10 1  
    15   15   16 am 
    16   16   17 2  
    17   16   18 1  
    18   15   19 1  
    19   18   20 1  
    20   18   21 1  
    21    4   15 1  
    22   22   23 1  
    23   22   24 1  
    24   23   25 1  
    25   23   26 1  
    26   24   27 1  
    27   24   28 1  
    28   24   29 1  
    29    5   23 1  
    30   31   30 1  
    31   30   37 2  
    32   32   31 1  
    33   38   32 2  
    34   33   34 2  
    35   33   38 1  
    36   34   35 1  
    37   35   36 2  
    38   36   37 1  
    39   37   38 1  
    40   30   39 1  
    41   32   43 1  
    42   33   40 1  
    43   34   41 1  
    44   36   42 1  
    45   18   35 1  
    46   44   45 am 
    47   45   46 2  
    48   45   47 1  
    49   44   48 1  
    50   44   49 1  
    51   47   50 1  
    52   47   51 1  
    53   31   47 1  
# Name:          No_5_16
# Creation time: Thu Mar 21 12:10:41 2024


@<TRIPOS>MOLECULE
000002_000002
   51    53     1     1     1
SMALL
USER_CHARGES


@<TRIPOS>ATOM
      1 C17        -9.9380  -44.0780   32.3390 C.ar       1 <1>        0.210
      2 C20        -7.4650  -44.7920   31.3410 C.ar       1 <1>        0.110
      3 C21        -8.5840  -45.5640   31.0680 C.ar       1 <1>        0.230
      4 C16        -9.8330  -45.1980   31.5350 C.ar       1 <1>        0.100
      5 C18        -8.8360  -43.2880   32.6200 C.ar       1 <1>        0.160
      6 C19        -7.6280  -43.6740   32.1130 C.ar       1 <1>        0.060
      7 H         -10.9020  -43.8130   32.7580 H          1 <1>        0.000
      8 H          -6.4902  -45.0660   30.9541 H          1 <1>        0.000
      9 H          -8.4780  -46.4683   30.4798 H          1 <1>        0.000
     10 C1         -6.4070  -42.8150   32.4270 C.3        1 <1>        0.060
     11 H2         -6.7101  -41.9629   33.0531 H          1 <1>        0.000
     12 O3         -5.4390  -43.6010   33.1270 O.3        1 <1>        0.700
     13 H4         -5.9689  -42.4439   31.4887 H          1 <1>        0.000
     14 H6         -5.1729  -44.3402   32.5929 H          1 <1>        0.000
     15 N         -10.9740  -45.9910   31.2630 N.am       1 <1>        0.420
     16 C         -11.9460  -45.5520   30.4340 C.2        1 <1>        0.050
     17 O         -12.9400  -46.2150   30.1820 O.2        1 <1>        0.350
     18 C4        -11.7830  -44.1910   29.8030 C.3        1 <1>       -0.020
     19 H2        -11.0559  -46.8893   31.6947 H          1 <1>        0.000
     20 H3        -11.7080  -43.4251   30.5889 H          1 <1>        0.000
     21 H5        -10.8671  -44.1720   29.1941 H          1 <1>        0.000
     22 O1         -8.3000  -42.2670   34.7220 O.3        1 <1>        0.040
     23 C1         -8.9670  -42.0280   33.4680 C.3        1 <1>        0.030
     24 C2         -8.3560  -41.1380   35.6150 C.3        1 <1>        0.070
     25 H5         -8.5042  -41.1913   32.9242 H          1 <1>        0.000
     26 H6        -10.0360  -41.8180   33.6200 H          1 <1>        0.000
     27 H7         -7.8247  -41.4112   36.5386 H          1 <1>        0.000
     28 H8         -9.3955  -40.8861   35.8719 H          1 <1>        0.000
     29 H9         -7.8638  -40.2577   35.1758 H          1 <1>        0.000
     30 C1        -14.1630  -43.4420   25.4490 C.2        1 <1>        0.110
     31 N2        -15.4140  -43.1120   25.2860 N.pl3      1 <1>        0.350
     32 C2        -16.0830  -42.9740   26.3980 C.2        1 <1>        0.020
     33 C3        -15.3500  -43.2390   28.8570 C.2        1 <1>        0.030
     34 C4        -14.2530  -43.5450   29.5650 C.2        1 <1>        0.030
     35 C5        -12.9530  -43.8610   28.9220 C.2        1 <1>        0.030
     36 C6        -12.7890  -43.8630   27.5920 C.2        1 <1>        0.080
     37 C7        -13.9560  -43.5350   26.7640 C.2        1 <1>        0.100
     38 C8        -15.2310  -43.2250   27.3940 C.2        1 <1>        0.080
     39 H10       -13.4204  -43.6101   24.6704 H          1 <1>        0.000
     40 H4        -16.3011  -43.0070   29.3340 H          1 <1>        0.000
     41 H5        -14.3110  -43.5630   30.6523 H          1 <1>        0.000
     42 H7        -11.8328  -44.0961   27.1259 H          1 <1>        0.000
     43 H17       -17.1328  -42.7048   26.5051 H          1 <1>        0.000
     44 N         -16.0560  -41.2760   22.1550 N.am       1 <1>        0.560
     45 C         -15.5770  -41.6070   23.3740 C.2        1 <1>        0.080
     46 O         -14.8090  -40.8860   23.9930 O.2        1 <1>        0.110
     47 C4        -16.0130  -42.9170   23.9800 C.3        1 <1>        0.010
     48 H1        -16.6841  -41.8821   21.6669 H          1 <1>        0.000
     49 H2        -15.7839  -40.4127   21.7299 H          1 <1>        0.000
     50 H3        -17.1075  -42.9300   24.0891 H          1 <1>        0.000
     51 H5        -15.7080  -43.7471   23.3259 H          1 <1>        0.000
@<TRIPOS>BOND
     1    3    2 ar 
     2    3    4 ar 
     3    2    6 ar 
     4    4    1 ar 
     5    6    5 ar 
     6    1    5 ar 
     7    1    7 1  
     8    2    8 1  
     9    3    9 1  
    10   10   11 1  
    11   10   12 1  
    12   10   13 1  
    13   12   14 1  
    14    6   10 1  
    15   15   16 am 
    16   16   17 2  
    17   16   18 1  
    18   15   19 1  
    19   18   20 1  
    20   18   21 1  
    21    4   15 1  
    22   22   23 1  
    23   22   24 1  
    24   23   25 1  
    25   23   26 1  
    26   24   27 1  
    27   24   28 1  
    28   24   29 1  
    29    5   23 1  
    30   31   30 1  
    31   30   37 2  
    32   32   31 1  
    33   38   32 2  
    34   33   34 2  
    35   33   38 1  
    36   34   35 1  
    37   35   36 2  
    38   36   37 1  
    39   37   38 1  
    40   30   39 1  
    41   32   43 1  
    42   33   40 1  
    43   34   41 1  
    44   36   42 1  
    45   18   35 1  
    46   44   45 am 
    47   45   46 2  
    48   45   47 1  
    49   44   48 1  
    50   44   49 1  
    51   47   50 1  
    52   47   51 1  
    53   31   47 1  
# Name:          No_5_19
# Creation time: Thu Mar 21 12:10:41 2024


@<TRIPOS>MOLECULE
000002_000003
   51    53     1     1     1
SMALL
USER_CHARGES


@<TRIPOS>ATOM
      1 C17        -9.9380  -44.0780   32.3390 C.ar       1 <1>        0.210
      2 C20        -7.4650  -44.7920   31.3410 C.ar       1 <1>        0.110
      3 C21        -8.5840  -45.5640   31.0680 C.ar       1 <1>        0.230
      4 C16        -9.8330  -45.1980   31.5350 C.ar       1 <1>        0.100
      5 C18        -8.8360  -43.2880   32.6200 C.ar       1 <1>        0.160
      6 C19        -7.6280  -43.6740   32.1130 C.ar       1 <1>        0.060
      7 H         -10.9020  -43.8130   32.7580 H          1 <1>        0.000
      8 H          -6.4902  -45.0660   30.9541 H          1 <1>        0.000
      9 H          -8.4780  -46.4683   30.4798 H          1 <1>        0.000
     10 C1         -6.4070  -42.8150   32.4270 C.3        1 <1>        0.060
     11 H2         -6.7101  -41.9629   33.0531 H          1 <1>        0.000
     12 O3         -5.4390  -43.6010   33.1270 O.3        1 <1>        0.700
     13 H4         -5.9689  -42.4439   31.4887 H          1 <1>        0.000
     14 H6         -5.1729  -44.3402   32.5929 H          1 <1>        0.000
     15 N         -10.9740  -45.9910   31.2630 N.am       1 <1>        0.420
     16 C         -11.9460  -45.5520   30.4340 C.2        1 <1>        0.050
     17 O         -12.9400  -46.2150   30.1820 O.2        1 <1>        0.350
     18 C4        -11.7830  -44.1910   29.8030 C.3        1 <1>       -0.020
     19 H2        -11.0559  -46.8893   31.6947 H          1 <1>        0.000
     20 H3        -11.7080  -43.4251   30.5889 H          1 <1>        0.000
     21 H5        -10.8671  -44.1720   29.1941 H          1 <1>        0.000
     22 O1         -8.3000  -42.2670   34.7220 O.3        1 <1>        0.040
     23 C1         -8.9670  -42.0280   33.4680 C.3        1 <1>        0.030
     24 C2         -8.3560  -41.1380   35.6150 C.3        1 <1>        0.070
     25 H5         -8.5042  -41.1913   32.9242 H          1 <1>        0.000
     26 H6        -10.0360  -41.8180   33.6200 H          1 <1>        0.000
     27 H7         -7.8247  -41.4112   36.5386 H          1 <1>        0.000
     28 H8         -9.3955  -40.8861   35.8719 H          1 <1>        0.000
     29 H9         -7.8638  -40.2577   35.1758 H          1 <1>        0.000
     30 C1        -14.1630  -43.4420   25.4490 C.2        1 <1>        0.110
     31 N2        -15.4140  -43.1120   25.2860 N.pl3      1 <1>        0.350
     32 C2        -16.0830  -42.9740   26.3980 C.2        1 <1>        0.020
     33 C3        -15.3500  -43.2390   28.8570 C.2        1 <1>        0.030
     34 C4        -14.2530  -43.5450   29.5650 C.2        1 <1>        0.030
     35 C5        -12.9530  -43.8610   28.9220 C.2        1 <1>        0.030
     36 C6        -12.7890  -43.8630   27.5920 C.2        1 <1>        0.080
     37 C7        -13.9560  -43.5350   26.7640 C.2        1 <1>        0.100
     38 C8        -15.2310  -43.2250   27.3940 C.2        1 <1>        0.080
     39 H10       -13.4204  -43.6101   24.6704 H          1 <1>        0.000
     40 H4        -16.3011  -43.0070   29.3340 H          1 <1>        0.000
     41 H5        -14.3110  -43.5630   30.6523 H          1 <1>        0.000
     42 H7        -11.8328  -44.0961   27.1259 H          1 <1>        0.000
     43 H17       -17.1328  -42.7048   26.5051 H          1 <1>        0.000
     44 N         -16.4010  -41.1380   22.3330 N.am       1 <1>        0.530
     45 C         -15.8840  -41.4830   23.5330 C.2        1 <1>        0.070
     46 O         -15.3210  -40.6770   24.2580 O.2        1 <1>        0.060
     47 C4        -16.0130  -42.9170   23.9800 C.3        1 <1>        0.010
     48 H1        -16.8572  -41.8153   21.7558 H          1 <1>        0.000
     49 H2        -16.3290  -40.1937   22.0119 H          1 <1>        0.000
     50 H3        -17.0761  -43.1940   24.0350 H          1 <1>        0.000
     51 H5        -15.5073  -43.5766   23.2594 H          1 <1>        0.000
@<TRIPOS>BOND
     1    3    2 ar 
     2    3    4 ar 
     3    2    6 ar 
     4    4    1 ar 
     5    6    5 ar 
     6    1    5 ar 
     7    1    7 1  
     8    2    8 1  
     9    3    9 1  
    10   10   11 1  
    11   10   12 1  
    12   10   13 1  
    13   12   14 1  
    14    6   10 1  
    15   15   16 am 
    16   16   17 2  
    17   16   18 1  
    18   15   19 1  
    19   18   20 1  
    20   18   21 1  
    21    4   15 1  
    22   22   23 1  
    23   22   24 1  
    24   23   25 1  
    25   23   26 1  
    26   24   27 1  
    27   24   28 1  
    28   24   29 1  
    29    5   23 1  
    30   31   30 1  
    31   30   37 2  
    32   32   31 1  
    33   38   32 2  
    34   33   34 2  
    35   33   38 1  
    36   34   35 1  
    37   35   36 2  
    38   36   37 1  
    39   37   38 1  
    40   30   39 1  
    41   32   43 1  
    42   33   40 1  
    43   34   41 1  
    44   36   42 1  
    45   18   35 1  
    46   44   45 am 
    47   45   46 2  
    48   45   47 1  
    49   44   48 1  
    50   44   49 1  
    51   47   50 1  
    52   47   51 1  
    53   31   47 1  
# Name:          No_4_189
# Creation time: Thu Mar 21 12:10:41 2024


@<TRIPOS>MOLECULE
000002_000004
   51    53     1     1     1
SMALL
USER_CHARGES


@<TRIPOS>ATOM
      1 C17        -9.9380  -44.0780   32.3390 C.ar       1 <1>        0.210
      2 C20        -7.4650  -44.7920   31.3410 C.ar       1 <1>        0.110
      3 C21        -8.5840  -45.5640   31.0680 C.ar       1 <1>        0.230
      4 C16        -9.8330  -45.1980   31.5350 C.ar       1 <1>        0.100
      5 C18        -8.8360  -43.2880   32.6200 C.ar       1 <1>        0.160
      6 C19        -7.6280  -43.6740   32.1130 C.ar       1 <1>        0.060
      7 H         -10.9020  -43.8130   32.7580 H          1 <1>        0.000
      8 H          -6.4902  -45.0660   30.9541 H          1 <1>        0.000
      9 H          -8.4780  -46.4683   30.4798 H          1 <1>        0.000
     10 C1         -6.4070  -42.8150   32.4270 C.3        1 <1>        0.060
     11 H2         -6.7101  -41.9629   33.0531 H          1 <1>        0.000
     12 O3         -5.4390  -43.6010   33.1270 O.3        1 <1>        0.700
     13 H4         -5.9689  -42.4439   31.4887 H          1 <1>        0.000
     14 H6         -5.1729  -44.3402   32.5929 H          1 <1>        0.000
     15 N         -10.9740  -45.9910   31.2630 N.am       1 <1>        0.420
     16 C         -11.9460  -45.5520   30.4340 C.2        1 <1>        0.050
     17 O         -12.9400  -46.2150   30.1820 O.2        1 <1>        0.350
     18 C4        -11.7830  -44.1910   29.8030 C.3        1 <1>       -0.020
     19 H2        -11.0559  -46.8893   31.6947 H          1 <1>        0.000
     20 H3        -11.7080  -43.4251   30.5889 H          1 <1>        0.000
     21 H5        -10.8671  -44.1720   29.1941 H          1 <1>        0.000
     22 O1         -8.3000  -42.2670   34.7220 O.3        1 <1>        0.040
     23 C1         -8.9670  -42.0280   33.4680 C.3        1 <1>        0.030
     24 C2         -8.3560  -41.1380   35.6150 C.3        1 <1>        0.070
     25 H5         -8.5042  -41.1913   32.9242 H          1 <1>        0.000
     26 H6        -10.0360  -41.8180   33.6200 H          1 <1>        0.000
     27 H7         -7.8247  -41.4112   36.5386 H          1 <1>        0.000
     28 H8         -9.3955  -40.8861   35.8719 H          1 <1>        0.000
     29 H9         -7.8638  -40.2577   35.1758 H          1 <1>        0.000
     30 C1        -14.1630  -43.4420   25.4490 C.2        1 <1>        0.110
     31 N2        -15.4140  -43.1120   25.2860 N.pl3      1 <1>        0.350
     32 C2        -16.0830  -42.9740   26.3980 C.2        1 <1>        0.020
     33 C3        -15.3500  -43.2390   28.8570 C.2        1 <1>        0.030
     34 C4        -14.2530  -43.5450   29.5650 C.2        1 <1>        0.030
     35 C5        -12.9530  -43.8610   28.9220 C.2        1 <1>        0.030
     36 C6        -12.7890  -43.8630   27.5920 C.2        1 <1>        0.080
     37 C7        -13.9560  -43.5350   26.7640 C.2        1 <1>        0.100
     38 C8        -15.2310  -43.2250   27.3940 C.2        1 <1>        0.080
     39 H10       -13.4204  -43.6101   24.6704 H          1 <1>        0.000
     40 H4        -16.3011  -43.0070   29.3340 H          1 <1>        0.000
     41 H5        -14.3110  -43.5630   30.6523 H          1 <1>        0.000
     42 H7        -11.8328  -44.0961   27.1259 H          1 <1>        0.000
     43 H17       -17.1328  -42.7048   26.5051 H          1 <1>        0.000
     44 N         -16.4010  -41.1380   22.3330 N.am       1 <1>        0.530
     45 C         -15.8840  -41.4830   23.5330 C.2        1 <1>        0.070
     46 O         -15.3210  -40.6770   24.2580 O.2        1 <1>        0.060
     47 C4        -16.0130  -42.9170   23.9800 C.3        1 <1>        0.010
     48 H1        -16.8572  -41.8153   21.7558 H          1 <1>        0.000
     49 H2        -16.3290  -40.1937   22.0119 H          1 <1>        0.000
     50 H3        -17.0761  -43.1940   24.0350 H          1 <1>        0.000
     51 H5        -15.5073  -43.5766   23.2594 H          1 <1>        0.000
@<TRIPOS>BOND
     1    3    2 ar 
     2    3    4 ar 
     3    2    6 ar 
     4    4    1 ar 
     5    6    5 ar 
     6    1    5 ar 
     7    1    7 1  
     8    2    8 1  
     9    3    9 1  
    10   10   11 1  
    11   10   12 1  
    12   10   13 1  
    13   12   14 1  
    14    6   10 1  
    15   15   16 am 
    16   16   17 2  
    17   16   18 1  
    18   15   19 1  
    19   18   20 1  
    20   18   21 1  
    21    4   15 1  
    22   22   23 1  
    23   22   24 1  
    24   23   25 1  
    25   23   26 1  
    26   24   27 1  
    27   24   28 1  
    28   24   29 1  
    29    5   23 1  
    30   31   30 1  
    31   30   37 2  
    32   32   31 1  
    33   38   32 2  
    34   33   34 2  
    35   33   38 1  
    36   34   35 1  
    37   35   36 2  
    38   36   37 1  
    39   37   38 1  
    40   30   39 1  
    41   32   43 1  
    42   33   40 1  
    43   34   41 1  
    44   36   42 1  
    45   18   35 1  
    46   44   45 am 
    47   45   46 2  
    48   45   47 1  
    49   44   48 1  
    50   44   49 1  
    51   47   50 1  
    52   47   51 1  
    53   31   47 1  
# Name:          No_4_188
# Creation time: Thu Mar 21 12:10:41 2024


@<TRIPOS>MOLECULE
000002_000005
   51    53     1     1     1
SMALL
USER_CHARGES


@<TRIPOS>ATOM
      1 C17        -9.9380  -44.0780   32.3390 C.ar       1 <1>        0.210
      2 C20        -7.4650  -44.7920   31.3410 C.ar       1 <1>        0.110
      3 C21        -8.5840  -45.5640   31.0680 C.ar       1 <1>        0.230
      4 C16        -9.8330  -45.1980   31.5350 C.ar       1 <1>        0.100
      5 C18        -8.8360  -43.2880   32.6200 C.ar       1 <1>        0.160
      6 C19        -7.6280  -43.6740   32.1130 C.ar       1 <1>        0.060
      7 H         -10.9020  -43.8130   32.7580 H          1 <1>        0.000
      8 H          -6.4902  -45.0660   30.9541 H          1 <1>        0.000
      9 H          -8.4780  -46.4683   30.4798 H          1 <1>        0.000
     10 C1         -6.4070  -42.8150   32.4270 C.3        1 <1>        0.060
     11 H2         -6.7101  -41.9629   33.0531 H          1 <1>        0.000
     12 O3         -5.4390  -43.6010   33.1270 O.3        1 <1>        0.700
     13 H4         -5.9689  -42.4439   31.4887 H          1 <1>        0.000
     14 H6         -5.1729  -44.3402   32.5929 H          1 <1>        0.000
     15 N         -10.9740  -45.9910   31.2630 N.am       1 <1>        0.420
     16 C         -11.9460  -45.5520   30.4340 C.2        1 <1>        0.050
     17 O         -12.9400  -46.2150   30.1820 O.2        1 <1>        0.350
     18 C4        -11.7830  -44.1910   29.8030 C.3        1 <1>       -0.020
     19 H2        -11.0559  -46.8893   31.6947 H          1 <1>        0.000
     20 H3        -11.7080  -43.4251   30.5889 H          1 <1>        0.000
     21 H5        -10.8671  -44.1720   29.1941 H          1 <1>        0.000
     22 O1         -8.3000  -42.2670   34.7220 O.3        1 <1>        0.040
     23 C1         -8.9670  -42.0280   33.4680 C.3        1 <1>        0.030
     24 C2         -8.3560  -41.1380   35.6150 C.3        1 <1>        0.070
     25 H5         -8.5042  -41.1913   32.9242 H          1 <1>        0.000
     26 H6        -10.0360  -41.8180   33.6200 H          1 <1>        0.000
     27 H7         -7.8247  -41.4112   36.5386 H          1 <1>        0.000
     28 H8         -9.3955  -40.8861   35.8719 H          1 <1>        0.000
     29 H9         -7.8638  -40.2577   35.1758 H          1 <1>        0.000
     30 C1        -14.1630  -43.4420   25.4490 C.2        1 <1>        0.110
     31 N2        -15.4140  -43.1120   25.2860 N.pl3      1 <1>        0.350
     32 C2        -16.0830  -42.9740   26.3980 C.2        1 <1>        0.020
     33 C3        -15.3500  -43.2390   28.8570 C.2        1 <1>        0.030
     34 C4        -14.2530  -43.5450   29.5650 C.2        1 <1>        0.030
     35 C5        -12.9530  -43.8610   28.9220 C.2        1 <1>        0.030
     36 C6        -12.7890  -43.8630   27.5920 C.2        1 <1>        0.080
     37 C7        -13.9560  -43.5350   26.7640 C.2        1 <1>        0.100
     38 C8        -15.2310  -43.2250   27.3940 C.2        1 <1>        0.080
     39 H10       -13.4204  -43.6101   24.6704 H          1 <1>        0.000
     40 H4        -16.3011  -43.0070   29.3340 H          1 <1>        0.000
     41 H5        -14.3110  -43.5630   30.6523 H          1 <1>        0.000
     42 H7        -11.8328  -44.0961   27.1259 H          1 <1>        0.000
     43 H17       -17.1328  -42.7048   26.5051 H          1 <1>        0.000
     44 N         -17.5560  -41.3980   22.8230 N.am       1 <1>        0.360
     45 C         -16.9160  -41.7100   23.9720 C.2        1 <1>        0.050
     46 O         -17.0460  -41.0510   24.9920 O.2        1 <1>        0.020
     47 C4        -16.0130  -42.9170   23.9800 C.3        1 <1>        0.010
     48 H1        -17.4339  -41.9522   21.9996 H          1 <1>        0.000
     49 H2        -18.1613  -40.6027   22.7900 H          1 <1>        0.000
     50 H3        -16.5919  -43.8158   23.7211 H          1 <1>        0.000
     51 H5        -15.2092  -42.7830   23.2411 H          1 <1>        0.000
@<TRIPOS>BOND
     1    3    2 ar 
     2    3    4 ar 
     3    2    6 ar 
     4    4    1 ar 
     5    6    5 ar 
     6    1    5 ar 
     7    1    7 1  
     8    2    8 1  
     9    3    9 1  
    10   10   11 1  
    11   10   12 1  
    12   10   13 1  
    13   12   14 1  
    14    6   10 1  
    15   15   16 am 
    16   16   17 2  
    17   16   18 1  
    18   15   19 1  
    19   18   20 1  
    20   18   21 1  
    21    4   15 1  
    22   22   23 1  
    23   22   24 1  
    24   23   25 1  
    25   23   26 1  
    26   24   27 1  
    27   24   28 1  
    28   24   29 1  
    29    5   23 1  
    30   31   30 1  
    31   30   37 2  
    32   32   31 1  
    33   38   32 2  
    34   33   34 2  
    35   33   38 1  
    36   34   35 1  
    37   35   36 2  
    38   36   37 1  
    39   37   38 1  
    40   30   39 1  
    41   32   43 1  
    42   33   40 1  
    43   34   41 1  
    44   36   42 1  
    45   18   35 1  
    46   44   45 am 
    47   45   46 2  
    48   45   47 1  
    49   44   48 1  
    50   44   49 1  
    51   47   50 1  
    52   47   51 1  
    53   31   47 1  
# Name:          No_7_179
# Creation time: Thu Mar 21 12:10:41 2024


@<TRIPOS>MOLECULE
000003_000001
   50    51     1     1     1
SMALL
USER_CHARGES


@<TRIPOS>ATOM
      1 C17        -9.9380  -44.0780   32.3390 C.ar       1 <1>        0.210
      2 C20        -7.4650  -44.7920   31.3410 C.ar       1 <1>        0.110
      3 C21        -8.5840  -45.5640   31.0680 C.ar       1 <1>        0.180
      4 C16        -9.8330  -45.1980   31.5350 C.ar       1 <1>        0.100
      5 C18        -8.8360  -43.2880   32.6200 C.ar       1 <1>        0.210
      6 C19        -7.6280  -43.6740   32.1130 C.ar       1 <1>        0.060
      7 H         -10.9020  -43.8130   32.7580 H          1 <1>        0.000
      8 H          -6.4902  -45.0660   30.9541 H          1 <1>        0.000
      9 H          -8.9290  -42.3920   33.2230 H          1 <1>        0.000
     10 C1         -6.4070  -42.8150   32.4270 C.3        1 <1>        0.060
     11 H2         -6.7101  -41.9629   33.0531 H          1 <1>        0.000
     12 O3         -5.4390  -43.6010   33.1270 O.3        1 <1>        0.700
     13 H4         -5.9689  -42.4439   31.4887 H          1 <1>        0.000
     14 H6         -5.1729  -44.3402   32.5929 H          1 <1>        0.000
     15 N         -10.9740  -45.9910   31.2630 N.am       1 <1>        0.420
     16 C         -11.9460  -45.5520   30.4340 C.2        1 <1>        0.050
     17 O         -12.9400  -46.2150   30.1820 O.2        1 <1>        0.350
     18 C4        -11.7830  -44.1910   29.8030 C.3        1 <1>       -0.020
     19 H2        -11.0559  -46.8893   31.6947 H          1 <1>        0.000
     20 H3        -11.7080  -43.4251   30.5889 H          1 <1>        0.000
     21 H5        -10.8671  -44.1720   29.1941 H          1 <1>        0.000
     22 N1        -14.9000  -43.7820   28.0680 N.pl3      1 <1>        0.250
     23 C1        -14.2130  -42.9880   27.2990 C.2        1 <1>        0.050
     24 C2        -12.9590  -42.9670   27.7560 C.2        1 <1>        0.040
     25 C3        -12.9530  -43.8610   28.9220 C.2        1 <1>        0.030
     26 C4        -14.2040  -44.3150   29.0290 C.2        1 <1>        0.070
     27 H1        -15.9027  -43.9711   27.9279 H          1 <1>        0.000
     28 H5        -14.5678  -45.0066   29.7875 H          1 <1>        0.000
     29 C1         -8.4350  -46.8360   30.2400 C.3        1 <1>       -0.040
     30 H2         -9.1681  -46.8280   29.4199 H          1 <1>        0.000
     31 O3         -8.6630  -47.9760   31.0730 O.3        1 <1>        0.480
     32 H5         -7.4182  -46.8850   29.8231 H          1 <1>        0.000
     33 H6         -8.0336  -47.9900   31.7845 H          1 <1>        0.000
     34 C1        -14.1830  -42.8540   24.8310 C.3        1 <1>        0.200
     35 C2        -14.7270  -42.2270   26.1110 C.3        1 <1>        0.020
     36 H4        -14.5601  -42.2968   23.9607 H          1 <1>        0.000
     37 H5        -13.0837  -42.8170   24.8430 H          1 <1>        0.000
     38 H6        -14.3969  -41.1797   26.1760 H          1 <1>        0.000
     39 H8        -15.8263  -42.2650   26.1000 H          1 <1>        0.000
     40 C1        -14.6460  -44.3210   24.7410 C.3        1 <1>        0.240
     41 H1        -15.7254  -44.3780   24.9451 H          1 <1>        0.000
     42 H2        -14.4420  -44.7081   23.7318 H          1 <1>        0.000
     43 H4        -14.1010  -44.9230   25.4830 H          1 <1>        0.000
     44 C1        -11.7960  -42.1970   27.2010 C.3        1 <1>        0.030
     45 C2        -11.2580  -41.2350   28.2770 C.3        1 <1>        0.270
     46 H1        -12.1240  -41.6199   26.3239 H          1 <1>        0.000
     47 H3        -11.0006  -42.8963   26.9039 H          1 <1>        0.000
     48 H4        -12.0529  -40.5351   28.5740 H          1 <1>        0.000
     49 H5        -10.4063  -40.6702   27.8701 H          1 <1>        0.000
     50 H6        -10.9298  -41.8114   29.1545 H          1 <1>        0.000
@<TRIPOS>BOND
     1    3    2 ar 
     2    3    4 ar 
     3    2    6 ar 
     4    4    1 ar 
     5    6    5 ar 
     6    1    5 ar 
     7    1    7 1  
     8    2    8 1  
     9    5    9 1  
    10   10   11 1  
    11   10   12 1  
    12   10   13 1  
    13   12   14 1  
    14    6   10 1  
    15   15   16 am 
    16   16   17 2  
    17   16   18 1  
    18   15   19 1  
    19   18   20 1  
    20   18   21 1  
    21    4   15 1  
    22   22   23 1  
    23   22   26 1  
    24   23   24 2  
    25   24   25 1  
    26   25   26 2  
    27   22   27 1  
    28   26   28 1  
    29   18   25 1  
    30   29   30 1  
    31   29   31 1  
    32   29   32 1  
    33   31   33 1  
    34    3   29 1  
    35   35   34 1  
    36   34   36 1  
    37   34   37 1  
    38   35   38 1  
    39   35   39 1  
    40   23   35 1  
    41   40   41 1  
    42   40   42 1  
    43   40   43 1  
    44   34   40 1  
    45   45   44 1  
    46   44   46 1  
    47   44   47 1  
    48   45   48 1  
    49   45   49 1  
    50   45   50 1  
    51   24   44 1  
# Name:          No_7_61
# Creation time: Thu Mar 21 12:29:31 2024


@<TRIPOS>MOLECULE
000001_000001
   45    47     1     1     1
SMALL
USER_CHARGES


@<TRIPOS>ATOM
      1 C17        -9.9380  -44.0780   32.3390 C.ar       1 <1>        0.150
      2 C20        -7.4650  -44.7920   31.3410 C.ar       1 <1>        0.110
      3 C21        -8.5840  -45.5640   31.0680 C.ar       1 <1>        0.230
      4 C16        -9.8330  -45.1980   31.5350 C.ar       1 <1>        0.060
      5 C18        -8.8360  -43.2880   32.6200 C.ar       1 <1>        0.210
      6 C19        -7.6280  -43.6740   32.1130 C.ar       1 <1>        0.060
      7 H          -6.4902  -45.0660   30.9541 H          1 <1>        0.000
      8 H          -8.4780  -46.4683   30.4798 H          1 <1>        0.000
      9 H          -8.9290  -42.3920   33.2230 H          1 <1>        0.000
     10 C1        -11.8310  -42.4630   32.2230 C.3        1 <1>        0.040
     11 C2        -11.2940  -43.7050   32.9280 C.3        1 <1>       -0.140
     12 H3        -11.1279  -41.6289   32.3640 H          1 <1>        0.000
     13 H6        -11.9966  -44.5395   32.7871 H          1 <1>        0.000
     14 H7        -11.1830  -43.4969   34.0024 H          1 <1>        0.000
     15 N1        -13.5530  -40.9050   33.1340 N.pl3      1 <1>        0.700
     16 C1        -13.1660  -42.0960   32.8020 C.2        1 <1>        0.050
     17 N2        -14.0900  -42.9100   33.0420 N.2        1 <1>        0.090
     18 C2        -15.2250  -42.2190   33.5930 C.2        1 <1>        0.090
     19 C3        -14.7770  -40.9470   33.6090 C.2        1 <1>        0.140
     20 H1        -12.9843  -40.0515   33.0391 H          1 <1>        0.000
     21 H3        -16.1869  -42.6200   33.9090 H          1 <1>        0.000
     22 H4        -15.3492  -40.0908   33.9631 H          1 <1>        0.000
     23 N1         -5.7570  -43.2770   33.6730 N.4        1 <1>        0.970
     24 C1         -6.4070  -42.8150   32.4270 C.3        1 <1>        0.060
     25 H2         -5.4521  -44.2347   33.5960 H          1 <1>        0.000
     26 H3         -4.9479  -42.7179   33.8940 H          1 <1>        0.000
     27 H5         -6.7332  -41.7694   32.5281 H          1 <1>        0.000
     28 H7         -5.7077  -42.8820   31.5806 H          1 <1>        0.000
     29 H1         -6.3870  -43.2220   34.4580 H          1 <1>        0.000
     30 C1        -11.1410  -46.0720   29.8540 C.3        1 <1>        0.080
     31 O2        -10.9530  -45.9770   31.2680 O.3        1 <1>        0.490
     32 H1        -10.2550  -46.5360   29.3960 H          1 <1>        0.000
     33 H2        -11.2871  -45.0655   29.4348 H          1 <1>        0.000
     34 H3        -12.0273  -46.6885   29.6432 H          1 <1>        0.000
     35 C1        -11.9860  -42.7510   30.7330 C.ar       1 <1>        0.130
     36 C2        -11.3280  -41.9500   29.7940 C.ar       1 <1>        0.200
     37 C3        -11.4700  -42.2150   28.4290 C.ar       1 <1>        0.210
     38 C4        -12.2690  -43.2800   28.0020 C.ar       1 <1>        0.190
     39 C5        -12.9260  -44.0810   28.9410 C.ar       1 <1>        0.190
     40 C6        -12.7840  -43.8160   30.3060 C.ar       1 <1>        0.060
     41 H2        -10.7085  -41.1244   30.1252 H          1 <1>        0.000
     42 H3        -10.9609  -41.5939   27.7009 H          1 <1>        0.000
     43 H4        -12.3790  -43.4850   26.9432 H          1 <1>        0.000
     44 H5        -13.5455  -44.9066   28.6098 H          1 <1>        0.000
     45 H6        -13.2939  -44.4368   31.0338 H          1 <1>        0.000
@<TRIPOS>BOND
     1    3    2 ar 
     2    3    4 ar 
     3    2    6 ar 
     4    4    1 ar 
     5    6    5 ar 
     6    1    5 ar 
     7    2    7 1  
     8    3    8 1  
     9    5    9 1  
    10   11   10 1  
    11   10   12 1  
    12   11   13 1  
    13   11   14 1  
    14    1   11 1  
    15   15   16 1  
    16   15   19 1  
    17   16   17 2  
    18   17   18 1  
    19   18   19 2  
    20   15   20 1  
    21   18   21 1  
    22   19   22 1  
    23   10   16 1  
    24   23   24 1  
    25   23   25 1  
    26   23   26 1  
    27   24   27 1  
    28   24   28 1  
    29   23   29 1  
    30    6   24 1  
    31   31   30 1  
    32   30   32 1  
    33   30   33 1  
    34   30   34 1  
    35    4   31 1  
    36   35   36 ar 
    37   35   40 ar 
    38   36   37 ar 
    39   37   38 ar 
    40   38   39 ar 
    41   39   40 ar 
    42   36   41 1  
    43   37   42 1  
    44   38   43 1  
    45   39   44 1  
    46   40   45 1  
    47   10   35 1  
# Name:          No_7_62
# Creation time: Thu Mar 21 12:29:31 2024


@<TRIPOS>MOLECULE
000001_000002
   45    47     1     1     1
SMALL
USER_CHARGES


@<TRIPOS>ATOM
      1 C17        -9.9380  -44.0780   32.3390 C.ar       1 <1>        0.150
      2 C20        -7.4650  -44.7920   31.3410 C.ar       1 <1>        0.110
      3 C21        -8.5840  -45.5640   31.0680 C.ar       1 <1>        0.230
      4 C16        -9.8330  -45.1980   31.5350 C.ar       1 <1>        0.060
      5 C18        -8.8360  -43.2880   32.6200 C.ar       1 <1>        0.210
      6 C19        -7.6280  -43.6740   32.1130 C.ar       1 <1>        0.060
      7 H          -6.4902  -45.0660   30.9541 H          1 <1>        0.000
      8 H          -8.4780  -46.4683   30.4798 H          1 <1>        0.000
      9 H          -8.9290  -42.3920   33.2230 H          1 <1>        0.000
     10 C1        -11.8310  -42.4630   32.2230 C.3        1 <1>        0.040
     11 C2        -11.2940  -43.7050   32.9280 C.3        1 <1>       -0.140
     12 H3        -11.1279  -41.6289   32.3640 H          1 <1>        0.000
     13 H6        -11.9966  -44.5395   32.7871 H          1 <1>        0.000
     14 H7        -11.1830  -43.4969   34.0024 H          1 <1>        0.000
     15 N1        -13.5530  -40.9050   33.1340 N.pl3      1 <1>        0.700
     16 C1        -13.1660  -42.0960   32.8020 C.2        1 <1>        0.050
     17 N2        -14.0900  -42.9100   33.0420 N.2        1 <1>        0.090
     18 C2        -15.2250  -42.2190   33.5930 C.2        1 <1>        0.090
     19 C3        -14.7770  -40.9470   33.6090 C.2        1 <1>        0.140
     20 H1        -12.9843  -40.0515   33.0391 H          1 <1>        0.000
     21 H3        -16.1869  -42.6200   33.9090 H          1 <1>        0.000
     22 H4        -15.3492  -40.0908   33.9631 H          1 <1>        0.000
     23 N1         -5.7570  -43.2770   33.6730 N.4        1 <1>        0.970
     24 C1         -6.4070  -42.8150   32.4270 C.3        1 <1>        0.060
     25 H2         -5.4521  -44.2347   33.5960 H          1 <1>        0.000
     26 H3         -4.9479  -42.7179   33.8940 H          1 <1>        0.000
     27 H5         -6.7332  -41.7694   32.5281 H          1 <1>        0.000
     28 H7         -5.7077  -42.8820   31.5806 H          1 <1>        0.000
     29 H1         -6.3870  -43.2220   34.4580 H          1 <1>        0.000
     30 C1        -11.1410  -46.0720   29.8540 C.3        1 <1>        0.080
     31 O2        -10.9530  -45.9770   31.2680 O.3        1 <1>        0.490
     32 H1        -10.2550  -46.5360   29.3960 H          1 <1>        0.000
     33 H2        -11.2871  -45.0655   29.4348 H          1 <1>        0.000
     34 H3        -12.0273  -46.6885   29.6432 H          1 <1>        0.000
     35 C1        -11.9860  -42.7510   30.7330 C.ar       1 <1>        0.130
     36 C2        -11.0010  -42.3310   29.8340 C.ar       1 <1>        0.080
     37 C3        -11.1430  -42.5950   28.4680 C.ar       1 <1>        0.200
     38 C4        -12.2690  -43.2800   28.0020 C.ar       1 <1>        0.190
     39 C5        -13.2540  -43.7000   28.9010 C.ar       1 <1>        0.190
     40 C6        -13.1120  -43.4360   30.2670 C.ar       1 <1>        0.160
     41 H2        -10.1280  -41.8000   30.1960 H          1 <1>        0.000
     42 H3        -10.3792  -42.2691   27.7712 H          1 <1>        0.000
     43 H4        -12.3790  -43.4850   26.9432 H          1 <1>        0.000
     44 H5        -14.1270  -44.2310   28.5390 H          1 <1>        0.000
     45 H6        -13.8753  -43.7621   30.9642 H          1 <1>        0.000
@<TRIPOS>BOND
     1    3    2 ar 
     2    3    4 ar 
     3    2    6 ar 
     4    4    1 ar 
     5    6    5 ar 
     6    1    5 ar 
     7    2    7 1  
     8    3    8 1  
     9    5    9 1  
    10   11   10 1  
    11   10   12 1  
    12   11   13 1  
    13   11   14 1  
    14    1   11 1  
    15   15   16 1  
    16   15   19 1  
    17   16   17 2  
    18   17   18 1  
    19   18   19 2  
    20   15   20 1  
    21   18   21 1  
    22   19   22 1  
    23   10   16 1  
    24   23   24 1  
    25   23   25 1  
    26   23   26 1  
    27   24   27 1  
    28   24   28 1  
    29   23   29 1  
    30    6   24 1  
    31   31   30 1  
    32   30   32 1  
    33   30   33 1  
    34   30   34 1  
    35    4   31 1  
    36   35   36 ar 
    37   35   40 ar 
    38   36   37 ar 
    39   37   38 ar 
    40   38   39 ar 
    41   39   40 ar 
    42   36   41 1  
    43   37   42 1  
    44   38   43 1  
    45   39   44 1  
    46   40   45 1  
    47   10   35 1  
# Name:          No_7_100
# Creation time: Thu Mar 21 12:29:32 2024


@<TRIPOS>MOLECULE
000002_000001
   66    68     1     1     1
SMALL
USER_CHARGES


@<TRIPOS>ATOM
      1 C17        -9.9380  -44.0780   32.3390 C.ar       1 <1>        0.210
      2 C20        -7.4650  -44.7920   31.3410 C.ar       1 <1>        0.110
      3 C21        -8.5840  -45.5640   31.0680 C.ar       1 <1>        0.230
      4 C16        -9.8330  -45.1980   31.5350 C.ar       1 <1>        0.170
      5 C18        -8.8360  -43.2880   32.6200 C.ar       1 <1>        0.160
      6 C19        -7.6280  -43.6740   32.1130 C.ar       1 <1>        0.060
      7 H         -10.9020  -43.8130   32.7580 H          1 <1>        0.000
      8 H          -6.4902  -45.0660   30.9541 H          1 <1>        0.000
      9 H          -8.4780  -46.4683   30.4798 H          1 <1>        0.000
     10 C1        -11.0620  -46.0530   31.2420 C.3        1 <1>        0.000
     11 H1        -10.7659  -46.9273   30.6438 H          1 <1>        0.000
     12 H2        -11.5078  -46.3898   32.1895 H          1 <1>        0.000
     13 N1        -12.5260  -45.5090   29.2970 N.pl3      1 <1>        0.280
     14 C1        -12.0660  -45.2400   30.4780 C.2        1 <1>        0.050
     15 N2        -12.5950  -44.1810   30.8940 N.2        1 <1>        0.060
     16 C2        -13.5070  -43.6660   29.9080 C.2        1 <1>        0.060
     17 C3        -13.3880  -44.5870   28.9310 C.2        1 <1>        0.050
     18 H1        -12.2561  -46.3248   28.7291 H          1 <1>        0.000
     19 H3        -14.1272  -42.7717   29.9470 H          1 <1>        0.000
     20 O1        -13.2250  -44.4250   26.5150 O.3        1 <1>        0.010
     21 C1        -12.4520  -43.2110   26.5560 C.3        1 <1>       -0.050
     22 C2        -14.1300  -44.5550   27.6270 C.3        1 <1>       -0.020
     23 H4        -11.7949  -43.1990   25.6739 H          1 <1>        0.000
     24 H5        -11.8258  -43.1690   27.4594 H          1 <1>        0.000
     25 H7        -14.6736  -45.5043   27.5121 H          1 <1>        0.000
     26 H8        -14.8620  -43.7340   27.6430 H          1 <1>        0.000
     27 N         -14.4670  -42.1980   25.5800 N.am       1 <1>        0.050
     28 C         -14.2120  -42.4640   24.2780 C.2        1 <1>        0.070
     29 O         -13.0790  -42.5250   23.8260 O.2        1 <1>        0.510
     30 C4        -13.3620  -41.9690   26.5050 C.3        1 <1>       -0.020
     31 C5        -15.3860  -42.6940   23.3590 C.3        1 <1>        0.030
     32 H2        -15.4042  -42.1540   25.9261 H          1 <1>        0.000
     33 H3        -12.7670  -41.1050   26.1740 H          1 <1>        0.000
     34 H5        -13.7291  -41.7679   27.5223 H          1 <1>        0.000
     35 H1        -15.9748  -43.5507   23.7189 H          1 <1>        0.000
     36 H6        -15.0499  -42.9031   22.3327 H          1 <1>        0.000
     37 C1         -8.9670  -42.0280   33.4680 C.3        1 <1>        0.030
     38 C2        -10.1650  -42.1750   34.4250 C.3        1 <1>        0.070
     39 H1         -9.1259  -41.1593   32.8122 H          1 <1>        0.000
     40 H3         -8.0470  -41.8820   34.0530 H          1 <1>        0.000
     41 H4        -11.0851  -42.3200   33.8399 H          1 <1>        0.000
     42 H6        -10.0059  -43.0433   35.0813 H          1 <1>        0.000
     43 C1        -16.2580  -41.4730   23.3400 C.2        1 <1>        0.070
     44 C2        -17.7610  -41.6180   23.3780 C.ar       1 <1>        0.190
     45 C3        -18.3420  -42.6970   24.0500 C.ar       1 <1>        0.170
     46 C4        -19.7340  -42.8310   24.0840 C.ar       1 <1>        0.120
     47 C5        -20.5430  -41.8860   23.4460 C.ar       1 <1>        0.160
     48 C6        -19.9620  -40.8070   22.7740 C.ar       1 <1>        0.160
     49 C7        -18.5700  -40.6730   22.7390 C.ar       1 <1>        0.190
     50 O8        -15.7530  -40.3630   23.2950 O.2        1 <1>        0.080
     51 H2        -17.7147  -43.4293   24.5452 H          1 <1>        0.000
     52 H3        -20.1851  -43.6671   24.6061 H          1 <1>        0.000
     53 H4        -21.6217  -41.9900   23.4730 H          1 <1>        0.000
     54 H5        -20.5893  -40.0747   22.2788 H          1 <1>        0.000
     55 H6        -18.1187  -39.8365   22.2177 H          1 <1>        0.000
     56 N1        -10.2910  -40.9600   35.2430 N.4        1 <1>        0.610
     57 H1        -10.8909  -40.3001   34.7731 H          1 <1>        0.000
     58 H2         -9.3803  -40.5491   35.3769 H          1 <1>        0.000
     59 H3        -10.6882  -41.1981   36.1383 H          1 <1>        0.000
     60 N1         -5.7570  -43.2770   33.6730 N.4        1 <1>        0.970
     61 C1         -6.4070  -42.8150   32.4270 C.3        1 <1>        0.060
     62 H2         -5.4521  -44.2347   33.5960 H          1 <1>        0.000
     63 H3         -4.9479  -42.7179   33.8940 H          1 <1>        0.000
     64 H5         -6.7332  -41.7694   32.5281 H          1 <1>        0.000
     65 H7         -5.7077  -42.8820   31.5806 H          1 <1>        0.000
     66 H1         -6.3870  -43.2220   34.4580 H          1 <1>        0.000
@<TRIPOS>BOND
     1    3    2 ar 
     2    3    4 ar 
     3    2    6 ar 
     4    4    1 ar 
     5    6    5 ar 
     6    1    5 ar 
     7    1    7 1  
     8    2    8 1  
     9    3    9 1  
    10   10   11 1  
    11   10   12 1  
    12    4   10 1  
    13   13   14 1  
    14   13   17 1  
    15   14   15 2  
    16   15   16 1  
    17   16   17 2  
    18   13   18 1  
    19   16   19 1  
    20   10   14 1  
    21   20   21 1  
    22   20   22 1  
    23   21   23 1  
    24   21   24 1  
    25   22   25 1  
    26   22   26 1  
    27   17   22 1  
    28   27   28 am 
    29   28   29 2  
    30   27   30 1  
    31   28   31 1  
    32   27   32 1  
    33   30   33 1  
    34   30   34 1  
    35   31   35 1  
    36   31   36 1  
    37   21   30 1  
    38   38   37 1  
    39   37   39 1  
    40   37   40 1  
    41   38   41 1  
    42   38   42 1  
    43    5   37 1  
    44   43   44 1  
    45   44   45 ar 
    46   44   49 ar 
    47   49   48 ar 
    48   48   47 ar 
    49   47   46 ar 
    50   46   45 ar 
    51   43   50 2  
    52   45   51 1  
    53   46   52 1  
    54   47   53 1  
    55   48   54 1  
    56   49   55 1  
    57   31   43 1  
    58   56   57 1  
    59   56   58 1  
    60   56   59 1  
    61   38   56 1  
    62   60   61 1  
    63   60   62 1  
    64   60   63 1  
    65   61   64 1  
    66   61   65 1  
    67   60   66 1  
    68    6   61 1  
# Name:          No_7_138
# Creation time: Thu Mar 21 12:29:32 2024


@<TRIPOS>MOLECULE
000002_000002
   65    66     1     1     1
SMALL
USER_CHARGES


@<TRIPOS>ATOM
      1 C17        -9.9380  -44.0780   32.3390 C.ar       1 <1>        0.210
      2 C20        -7.4650  -44.7920   31.3410 C.ar       1 <1>        0.110
      3 C21        -8.5840  -45.5640   31.0680 C.ar       1 <1>        0.230
      4 C16        -9.8330  -45.1980   31.5350 C.ar       1 <1>        0.170
      5 C18        -8.8360  -43.2880   32.6200 C.ar       1 <1>        0.160
      6 C19        -7.6280  -43.6740   32.1130 C.ar       1 <1>        0.100
      7 H          -6.7601  -43.0640   32.3360 H          1 <1>        0.000
      8 H         -10.9020  -43.8130   32.7580 H          1 <1>        0.000
      9 H          -8.4780  -46.4683   30.4798 H          1 <1>        0.000
     10 C1        -11.0620  -46.0530   31.2420 C.3        1 <1>        0.000
     11 H1        -10.7659  -46.9273   30.6438 H          1 <1>        0.000
     12 H2        -11.5078  -46.3898   32.1895 H          1 <1>        0.000
     13 N1        -12.5260  -45.5090   29.2970 N.pl3      1 <1>        0.280
     14 C1        -12.0660  -45.2400   30.4780 C.2        1 <1>        0.050
     15 N2        -12.5950  -44.1810   30.8940 N.2        1 <1>        0.060
     16 C2        -13.5070  -43.6660   29.9080 C.2        1 <1>        0.060
     17 C3        -13.3880  -44.5870   28.9310 C.2        1 <1>        0.050
     18 H1        -12.2561  -46.3248   28.7291 H          1 <1>        0.000
     19 H3        -14.1272  -42.7717   29.9470 H          1 <1>        0.000
     20 O1        -13.2250  -44.4250   26.5150 O.3        1 <1>        0.010
     21 C1        -12.4520  -43.2110   26.5560 C.3        1 <1>       -0.050
     22 C2        -14.1300  -44.5550   27.6270 C.3        1 <1>       -0.020
     23 H4        -11.7949  -43.1990   25.6739 H          1 <1>        0.000
     24 H5        -11.8258  -43.1690   27.4594 H          1 <1>        0.000
     25 H7        -14.6736  -45.5043   27.5121 H          1 <1>        0.000
     26 H8        -14.8620  -43.7340   27.6430 H          1 <1>        0.000
     27 N         -14.4670  -42.1980   25.5800 N.am       1 <1>        0.050
     28 C         -14.2120  -42.4640   24.2780 C.2        1 <1>        0.070
     29 O         -13.0790  -42.5250   23.8260 O.2        1 <1>        0.510
     30 C4        -13.3620  -41.9690   26.5050 C.3        1 <1>       -0.020
     31 C5        -15.3860  -42.6940   23.3590 C.3        1 <1>        0.030
     32 H2        -15.4042  -42.1540   25.9261 H          1 <1>        0.000
     33 H3        -12.7670  -41.1050   26.1740 H          1 <1>        0.000
     34 H5        -13.7291  -41.7679   27.5223 H          1 <1>        0.000
     35 H1        -15.9748  -43.5507   23.7189 H          1 <1>        0.000
     36 H6        -15.0499  -42.9031   22.3327 H          1 <1>        0.000
     37 N1         -6.2510  -45.1330   30.8600 N.pl3      1 <1>        0.560
     38 H2         -5.5721  -44.4002   30.6091 H          1 <1>        0.000
     39 H3         -6.0030  -46.1258   30.7430 H          1 <1>        0.000
     40 C1         -8.9670  -42.0280   33.4680 C.3        1 <1>        0.030
     41 C2        -10.1700  -42.1600   34.4380 C.3        1 <1>        0.200
     42 C3        -10.3300  -40.8910   35.3160 C.3        1 <1>        0.290
     43 H2         -8.0336  -41.8871   34.0327 H          1 <1>        0.000
     44 H3         -9.1080  -41.1670   32.7980 H          1 <1>        0.000
     45 H4        -10.0190  -43.0351   35.0871 H          1 <1>        0.000
     46 H5        -11.0900  -42.3180   33.8560 H          1 <1>        0.000
     47 H6        -11.1874  -41.0070   35.9953 H          1 <1>        0.000
     48 H7        -10.4990  -40.0068   34.6839 H          1 <1>        0.000
     49 H8         -9.4249  -40.7260   35.9190 H          1 <1>        0.000
     50 C1        -15.0680  -40.4870   21.4050 C.3        1 <1>       -0.210
     51 N2        -16.3810  -40.8880   21.9670 N.4        1 <1>        0.490
     52 C3        -16.2810  -41.4410   23.3400 C.3        1 <1>        0.030
     53 H5        -15.1890  -40.0839   20.3887 H          1 <1>        0.000
     54 H6        -14.5988  -39.7107   22.0273 H          1 <1>        0.000
     55 H7        -14.3869  -41.3492   21.3530 H          1 <1>        0.000
     56 H8        -17.2750  -41.7250   23.7160 H          1 <1>        0.000
     57 H9        -15.8530  -40.6980   24.0290 H          1 <1>        0.000
     58 H2        -16.8107  -41.5696   21.3614 H          1 <1>        0.000
     59 C1        -18.7030  -40.1980   21.7400 C.2        1 <1>        0.040
     60 O2        -19.5620  -39.9820   22.5790 O.2        1 <1>        0.050
     61 O3        -19.0110  -40.8370   20.6380 O.3        1 <1>        0.720
     62 C4        -17.2860  -39.7300   21.9700 C.3        1 <1>        0.030
     63 H5        -19.9334  -41.0641   20.6410 H          1 <1>        0.000
     64 H6        -17.2230  -39.2182   22.9416 H          1 <1>        0.000
     65 H8        -16.9949  -39.0348   21.1688 H          1 <1>        0.000
@<TRIPOS>BOND
     1    3    2 ar 
     2    3    4 ar 
     3    2    6 ar 
     4    4    1 ar 
     5    6    7 1  
     6    6    5 ar 
     7    1    5 ar 
     8    1    8 1  
     9    3    9 1  
    10   10   11 1  
    11   10   12 1  
    12    4   10 1  
    13   13   14 1  
    14   13   17 1  
    15   14   15 2  
    16   15   16 1  
    17   16   17 2  
    18   13   18 1  
    19   16   19 1  
    20   10   14 1  
    21   20   21 1  
    22   20   22 1  
    23   21   23 1  
    24   21   24 1  
    25   22   25 1  
    26   22   26 1  
    27   17   22 1  
    28   27   28 am 
    29   28   29 2  
    30   27   30 1  
    31   28   31 1  
    32   27   32 1  
    33   30   33 1  
    34   30   34 1  
    35   31   35 1  
    36   31   36 1  
    37   21   30 1  
    38   37   38 1  
    39   37   39 1  
    40    2   37 1  
    41   41   40 1  
    42   41   42 1  
    43   40   43 1  
    44   40   44 1  
    45   41   45 1  
    46   41   46 1  
    47   42   47 1  
    48   42   48 1  
    49   42   49 1  
    50    5   40 1  
    51   51   50 1  
    52   51   52 1  
    53   50   53 1  
    54   50   54 1  
    55   50   55 1  
    56   52   56 1  
    57   52   57 1  
    58   51   58 1  
    59   31   52 1  
    60   59   60 2  
    61   59   61 1  
    62   59   62 1  
    63   61   63 1  
    64   62   64 1  
    65   62   65 1  
    66   51   62 1  
# Name:          No_7_139
# Creation time: Thu Mar 21 12:29:32 2024


@<TRIPOS>MOLECULE
000002_000003
   65    66     1     1     1
SMALL
USER_CHARGES


@<TRIPOS>ATOM
      1 C17        -9.9380  -44.0780   32.3390 C.ar       1 <1>        0.210
      2 C20        -7.4650  -44.7920   31.3410 C.ar       1 <1>        0.110
      3 C21        -8.5840  -45.5640   31.0680 C.ar       1 <1>        0.230
      4 C16        -9.8330  -45.1980   31.5350 C.ar       1 <1>        0.170
      5 C18        -8.8360  -43.2880   32.6200 C.ar       1 <1>        0.160
      6 C19        -7.6280  -43.6740   32.1130 C.ar       1 <1>        0.100
      7 H          -6.7601  -43.0640   32.3360 H          1 <1>        0.000
      8 H         -10.9020  -43.8130   32.7580 H          1 <1>        0.000
      9 H          -8.4780  -46.4683   30.4798 H          1 <1>        0.000
     10 C1        -11.0620  -46.0530   31.2420 C.3        1 <1>        0.000
     11 H1        -10.7659  -46.9273   30.6438 H          1 <1>        0.000
     12 H2        -11.5078  -46.3898   32.1895 H          1 <1>        0.000
     13 N1        -12.5260  -45.5090   29.2970 N.pl3      1 <1>        0.280
     14 C1        -12.0660  -45.2400   30.4780 C.2        1 <1>        0.050
     15 N2        -12.5950  -44.1810   30.8940 N.2        1 <1>        0.060
     16 C2        -13.5070  -43.6660   29.9080 C.2        1 <1>        0.060
     17 C3        -13.3880  -44.5870   28.9310 C.2        1 <1>        0.050
     18 H1        -12.2561  -46.3248   28.7291 H          1 <1>        0.000
     19 H3        -14.1272  -42.7717   29.9470 H          1 <1>        0.000
     20 O1        -13.2250  -44.4250   26.5150 O.3        1 <1>        0.010
     21 C1        -12.4520  -43.2110   26.5560 C.3        1 <1>       -0.050
     22 C2        -14.1300  -44.5550   27.6270 C.3        1 <1>       -0.020
     23 H4        -11.7949  -43.1990   25.6739 H          1 <1>        0.000
     24 H5        -11.8258  -43.1690   27.4594 H          1 <1>        0.000
     25 H7        -14.6736  -45.5043   27.5121 H          1 <1>        0.000
     26 H8        -14.8620  -43.7340   27.6430 H          1 <1>        0.000
     27 N         -14.4670  -42.1980   25.5800 N.am       1 <1>        0.050
     28 C         -14.2120  -42.4640   24.2780 C.2        1 <1>        0.070
     29 O         -13.0790  -42.5250   23.8260 O.2        1 <1>        0.510
     30 C4        -13.3620  -41.9690   26.5050 C.3        1 <1>       -0.020
     31 C5        -15.3860  -42.6940   23.3590 C.3        1 <1>        0.030
     32 H2        -15.4042  -42.1540   25.9261 H          1 <1>        0.000
     33 H3        -12.7670  -41.1050   26.1740 H          1 <1>        0.000
     34 H5        -13.7291  -41.7679   27.5223 H          1 <1>        0.000
     35 H1        -15.9748  -43.5507   23.7189 H          1 <1>        0.000
     36 H6        -15.0499  -42.9031   22.3327 H          1 <1>        0.000
     37 N1         -6.2510  -45.1330   30.8600 N.pl3      1 <1>        0.560
     38 H2         -5.5721  -44.4002   30.6091 H          1 <1>        0.000
     39 H3         -6.0030  -46.1258   30.7430 H          1 <1>        0.000
     40 C1         -8.9670  -42.0280   33.4680 C.3        1 <1>        0.030
     41 C2        -10.1700  -42.1600   34.4380 C.3        1 <1>        0.200
     42 C3        -10.3300  -40.8910   35.3160 C.3        1 <1>        0.290
     43 H2         -8.0336  -41.8871   34.0327 H          1 <1>        0.000
     44 H3         -9.1080  -41.1670   32.7980 H          1 <1>        0.000
     45 H4        -10.0190  -43.0351   35.0871 H          1 <1>        0.000
     46 H5        -11.0900  -42.3180   33.8560 H          1 <1>        0.000
     47 H6        -11.1874  -41.0070   35.9953 H          1 <1>        0.000
     48 H7        -10.4990  -40.0068   34.6839 H          1 <1>        0.000
     49 H8         -9.4249  -40.7260   35.9190 H          1 <1>        0.000
     50 C1        -15.0680  -40.4870   21.4050 C.3        1 <1>       -0.210
     51 N2        -16.3810  -40.8880   21.9670 N.4        1 <1>        0.490
     52 C3        -16.2810  -41.4410   23.3400 C.3        1 <1>        0.030
     53 H5        -15.1890  -40.0839   20.3887 H          1 <1>        0.000
     54 H6        -14.5988  -39.7107   22.0273 H          1 <1>        0.000
     55 H7        -14.3869  -41.3492   21.3530 H          1 <1>        0.000
     56 H8        -17.2750  -41.7250   23.7160 H          1 <1>        0.000
     57 H9        -15.8530  -40.6980   24.0290 H          1 <1>        0.000
     58 H2        -16.8107  -41.5696   21.3614 H          1 <1>        0.000
     59 C1        -18.7170  -40.2100   22.0370 C.2        1 <1>        0.040
     60 O2        -19.4280  -39.8780   22.9710 O.2        1 <1>        0.060
     61 O3        -19.1930  -40.9810   21.0920 O.3        1 <1>        0.520
     62 C4        -17.2860  -39.7300   21.9700 C.3        1 <1>        0.030
     63 H5        -20.1003  -41.1958   21.2739 H          1 <1>        0.000
     64 H6        -17.0699  -39.0987   22.8445 H          1 <1>        0.000
     65 H8        -17.1380  -39.1458   21.0498 H          1 <1>        0.000
@<TRIPOS>BOND
     1    3    2 ar 
     2    3    4 ar 
     3    2    6 ar 
     4    4    1 ar 
     5    6    7 1  
     6    6    5 ar 
     7    1    5 ar 
     8    1    8 1  
     9    3    9 1  
    10   10   11 1  
    11   10   12 1  
    12    4   10 1  
    13   13   14 1  
    14   13   17 1  
    15   14   15 2  
    16   15   16 1  
    17   16   17 2  
    18   13   18 1  
    19   16   19 1  
    20   10   14 1  
    21   20   21 1  
    22   20   22 1  
    23   21   23 1  
    24   21   24 1  
    25   22   25 1  
    26   22   26 1  
    27   17   22 1  
    28   27   28 am 
    29   28   29 2  
    30   27   30 1  
    31   28   31 1  
    32   27   32 1  
    33   30   33 1  
    34   30   34 1  
    35   31   35 1  
    36   31   36 1  
    37   21   30 1  
    38   37   38 1  
    39   37   39 1  
    40    2   37 1  
    41   41   40 1  
    42   41   42 1  
    43   40   43 1  
    44   40   44 1  
    45   41   45 1  
    46   41   46 1  
    47   42   47 1  
    48   42   48 1  
    49   42   49 1  
    50    5   40 1  
    51   51   50 1  
    52   51   52 1  
    53   50   53 1  
    54   50   54 1  
    55   50   55 1  
    56   52   56 1  
    57   52   57 1  
    58   51   58 1  
    59   31   52 1  
    60   59   60 2  
    61   59   61 1  
    62   59   62 1  
    63   61   63 1  
    64   62   64 1  
    65   62   65 1  
    66   51   62 1  
# Name:          No_7_140
# Creation time: Thu Mar 21 12:29:32 2024


@<TRIPOS>MOLECULE
000002_000004
   65    66     1     1     1
SMALL
USER_CHARGES


@<TRIPOS>ATOM
      1 C17        -9.9380  -44.0780   32.3390 C.ar       1 <1>        0.210
      2 C20        -7.4650  -44.7920   31.3410 C.ar       1 <1>        0.110
      3 C21        -8.5840  -45.5640   31.0680 C.ar       1 <1>        0.230
      4 C16        -9.8330  -45.1980   31.5350 C.ar       1 <1>        0.170
      5 C18        -8.8360  -43.2880   32.6200 C.ar       1 <1>        0.160
      6 C19        -7.6280  -43.6740   32.1130 C.ar       1 <1>        0.100
      7 H          -6.7601  -43.0640   32.3360 H          1 <1>        0.000
      8 H         -10.9020  -43.8130   32.7580 H          1 <1>        0.000
      9 H          -8.4780  -46.4683   30.4798 H          1 <1>        0.000
     10 C1        -11.0620  -46.0530   31.2420 C.3        1 <1>        0.000
     11 H1        -10.7659  -46.9273   30.6438 H          1 <1>        0.000
     12 H2        -11.5078  -46.3898   32.1895 H          1 <1>        0.000
     13 N1        -12.5260  -45.5090   29.2970 N.pl3      1 <1>        0.280
     14 C1        -12.0660  -45.2400   30.4780 C.2        1 <1>        0.050
     15 N2        -12.5950  -44.1810   30.8940 N.2        1 <1>        0.060
     16 C2        -13.5070  -43.6660   29.9080 C.2        1 <1>        0.060
     17 C3        -13.3880  -44.5870   28.9310 C.2        1 <1>        0.050
     18 H1        -12.2561  -46.3248   28.7291 H          1 <1>        0.000
     19 H3        -14.1272  -42.7717   29.9470 H          1 <1>        0.000
     20 O1        -13.2250  -44.4250   26.5150 O.3        1 <1>        0.010
     21 C1        -12.4520  -43.2110   26.5560 C.3        1 <1>       -0.050
     22 C2        -14.1300  -44.5550   27.6270 C.3        1 <1>       -0.020
     23 H4        -11.7949  -43.1990   25.6739 H          1 <1>        0.000
     24 H5        -11.8258  -43.1690   27.4594 H          1 <1>        0.000
     25 H7        -14.6736  -45.5043   27.5121 H          1 <1>        0.000
     26 H8        -14.8620  -43.7340   27.6430 H          1 <1>        0.000
     27 N         -14.4670  -42.1980   25.5800 N.am       1 <1>        0.050
     28 C         -14.2120  -42.4640   24.2780 C.2        1 <1>        0.070
     29 O         -13.0790  -42.5250   23.8260 O.2        1 <1>        0.510
     30 C4        -13.3620  -41.9690   26.5050 C.3        1 <1>       -0.020
     31 C5        -15.3860  -42.6940   23.3590 C.3        1 <1>        0.030
     32 H2        -15.4042  -42.1540   25.9261 H          1 <1>        0.000
     33 H3        -12.7670  -41.1050   26.1740 H          1 <1>        0.000
     34 H5        -13.7291  -41.7679   27.5223 H          1 <1>        0.000
     35 H1        -15.9748  -43.5507   23.7189 H          1 <1>        0.000
     36 H6        -15.0499  -42.9031   22.3327 H          1 <1>        0.000
     37 N1         -6.2510  -45.1330   30.8600 N.pl3      1 <1>        0.560
     38 H2         -5.5721  -44.4002   30.6091 H          1 <1>        0.000
     39 H3         -6.0030  -46.1258   30.7430 H          1 <1>        0.000
     40 C1         -8.9670  -42.0280   33.4680 C.3        1 <1>        0.030
     41 C2        -10.1700  -42.1600   34.4380 C.3        1 <1>        0.200
     42 C3        -10.3300  -40.8910   35.3160 C.3        1 <1>        0.290
     43 H2         -8.0336  -41.8871   34.0327 H          1 <1>        0.000
     44 H3         -9.1080  -41.1670   32.7980 H          1 <1>        0.000
     45 H4        -10.0190  -43.0351   35.0871 H          1 <1>        0.000
     46 H5        -11.0900  -42.3180   33.8560 H          1 <1>        0.000
     47 H6        -11.1874  -41.0070   35.9953 H          1 <1>        0.000
     48 H7        -10.4990  -40.0068   34.6839 H          1 <1>        0.000
     49 H8         -9.4249  -40.7260   35.9190 H          1 <1>        0.000
     50 C1        -15.0680  -40.4870   21.4050 C.3        1 <1>       -0.210
     51 N2        -16.3810  -40.8880   21.9670 N.4        1 <1>        0.490
     52 C3        -16.2810  -41.4410   23.3400 C.3        1 <1>        0.030
     53 H5        -15.1890  -40.0839   20.3887 H          1 <1>        0.000
     54 H6        -14.5988  -39.7107   22.0273 H          1 <1>        0.000
     55 H7        -14.3869  -41.3492   21.3530 H          1 <1>        0.000
     56 H8        -17.2750  -41.7250   23.7160 H          1 <1>        0.000
     57 H9        -15.8530  -40.6980   24.0290 H          1 <1>        0.000
     58 H2        -16.8107  -41.5696   21.3614 H          1 <1>        0.000
     59 C1        -18.6950  -40.1930   22.2580 C.2        1 <1>        0.040
     60 O2        -19.2880  -39.7690   23.2370 O.2        1 <1>        0.060
     61 O3        -19.2790  -41.0490   21.4580 O.3        1 <1>        0.510
     62 C4        -17.2860  -39.7300   21.9700 C.3        1 <1>        0.030
     63 H5        -20.1553  -41.2408   21.7707 H          1 <1>        0.000
     64 H6        -16.9678  -39.0187   22.7464 H          1 <1>        0.000
     65 H8        -17.2560  -39.2378   20.9867 H          1 <1>        0.000
@<TRIPOS>BOND
     1    3    2 ar 
     2    3    4 ar 
     3    2    6 ar 
     4    4    1 ar 
     5    6    7 1  
     6    6    5 ar 
     7    1    5 ar 
     8    1    8 1  
     9    3    9 1  
    10   10   11 1  
    11   10   12 1  
    12    4   10 1  
    13   13   14 1  
    14   13   17 1  
    15   14   15 2  
    16   15   16 1  
    17   16   17 2  
    18   13   18 1  
    19   16   19 1  
    20   10   14 1  
    21   20   21 1  
    22   20   22 1  
    23   21   23 1  
    24   21   24 1  
    25   22   25 1  
    26   22   26 1  
    27   17   22 1  
    28   27   28 am 
    29   28   29 2  
    30   27   30 1  
    31   28   31 1  
    32   27   32 1  
    33   30   33 1  
    34   30   34 1  
    35   31   35 1  
    36   31   36 1  
    37   21   30 1  
    38   37   38 1  
    39   37   39 1  
    40    2   37 1  
    41   41   40 1  
    42   41   42 1  
    43   40   43 1  
    44   40   44 1  
    45   41   45 1  
    46   41   46 1  
    47   42   47 1  
    48   42   48 1  
    49   42   49 1  
    50    5   40 1  
    51   51   50 1  
    52   51   52 1  
    53   50   53 1  
    54   50   54 1  
    55   50   55 1  
    56   52   56 1  
    57   52   57 1  
    58   51   58 1  
    59   31   52 1  
    60   59   60 2  
    61   59   61 1  
    62   59   62 1  
    63   61   63 1  
    64   62   64 1  
    65   62   65 1  
    66   51   62 1  
# Name:          No_7_37
# Creation time: Thu Mar 21 12:29:31 2024


@<TRIPOS>MOLECULE
000002_000005
   67    69     1     1     1
SMALL
USER_CHARGES


@<TRIPOS>ATOM
      1 C17        -9.9380  -44.0780   32.3390 C.ar       1 <1>        0.210
      2 C20        -7.4650  -44.7920   31.3410 C.ar       1 <1>        0.110
      3 C21        -8.5840  -45.5640   31.0680 C.ar       1 <1>        0.230
      4 C16        -9.8330  -45.1980   31.5350 C.ar       1 <1>        0.170
      5 C18        -8.8360  -43.2880   32.6200 C.ar       1 <1>        0.160
      6 C19        -7.6280  -43.6740   32.1130 C.ar       1 <1>        0.060
      7 H         -10.9020  -43.8130   32.7580 H          1 <1>        0.000
      8 H          -6.4902  -45.0660   30.9541 H          1 <1>        0.000
      9 H          -8.4780  -46.4683   30.4798 H          1 <1>        0.000
     10 C1        -11.0620  -46.0530   31.2420 C.3        1 <1>        0.000
     11 H1        -10.7659  -46.9273   30.6438 H          1 <1>        0.000
     12 H2        -11.5078  -46.3898   32.1895 H          1 <1>        0.000
     13 N1        -12.5260  -45.5090   29.2970 N.pl3      1 <1>        0.280
     14 C1        -12.0660  -45.2400   30.4780 C.2        1 <1>        0.050
     15 N2        -12.5950  -44.1810   30.8940 N.2        1 <1>        0.060
     16 C2        -13.5070  -43.6660   29.9080 C.2        1 <1>        0.060
     17 C3        -13.3880  -44.5870   28.9310 C.2        1 <1>        0.050
     18 H1        -12.2561  -46.3248   28.7291 H          1 <1>        0.000
     19 H3        -14.1272  -42.7717   29.9470 H          1 <1>        0.000
     20 O1        -13.2250  -44.4250   26.5150 O.3        1 <1>        0.010
     21 C1        -12.4520  -43.2110   26.5560 C.3        1 <1>       -0.050
     22 C2        -14.1300  -44.5550   27.6270 C.3        1 <1>       -0.020
     23 H4        -11.7949  -43.1990   25.6739 H          1 <1>        0.000
     24 H5        -11.8258  -43.1690   27.4594 H          1 <1>        0.000
     25 H7        -14.6736  -45.5043   27.5121 H          1 <1>        0.000
     26 H8        -14.8620  -43.7340   27.6430 H          1 <1>        0.000
     27 N         -14.4670  -42.1980   25.5800 N.am       1 <1>        0.050
     28 C         -14.2120  -42.4640   24.2780 C.2        1 <1>        0.070
     29 O         -13.0790  -42.5250   23.8260 O.2        1 <1>        0.510
     30 C4        -13.3620  -41.9690   26.5050 C.3        1 <1>       -0.020
     31 C5        -15.3860  -42.6940   23.3590 C.3        1 <1>        0.030
     32 H2        -15.4042  -42.1540   25.9261 H          1 <1>        0.000
     33 H3        -12.7670  -41.1050   26.1740 H          1 <1>        0.000
     34 H5        -13.7291  -41.7679   27.5223 H          1 <1>        0.000
     35 H1        -15.9748  -43.5507   23.7189 H          1 <1>        0.000
     36 H6        -15.0499  -42.9031   22.3327 H          1 <1>        0.000
     37 C1         -8.9670  -42.0280   33.4680 C.3        1 <1>        0.030
     38 C2        -10.1650  -42.1750   34.4250 C.3        1 <1>        0.160
     39 H1         -9.1259  -41.1593   32.8122 H          1 <1>        0.000
     40 H3         -8.0470  -41.8820   34.0530 H          1 <1>        0.000
     41 H4        -11.0851  -42.3200   33.8399 H          1 <1>        0.000
     42 H6        -10.0059  -43.0433   35.0813 H          1 <1>        0.000
     43 C1        -16.2580  -41.4730   23.3400 C.2        1 <1>        0.070
     44 C2        -17.7610  -41.6180   23.3780 C.ar       1 <1>        0.190
     45 C3        -18.3420  -42.6970   24.0500 C.ar       1 <1>        0.170
     46 C4        -19.7340  -42.8310   24.0840 C.ar       1 <1>        0.120
     47 C5        -20.5430  -41.8860   23.4460 C.ar       1 <1>        0.160
     48 C6        -19.9620  -40.8070   22.7740 C.ar       1 <1>        0.160
     49 C7        -18.5700  -40.6730   22.7390 C.ar       1 <1>        0.190
     50 O8        -15.7530  -40.3630   23.2950 O.2        1 <1>        0.080
     51 H2        -17.7147  -43.4293   24.5452 H          1 <1>        0.000
     52 H3        -20.1851  -43.6671   24.6061 H          1 <1>        0.000
     53 H4        -21.6217  -41.9900   23.4730 H          1 <1>        0.000
     54 H5        -20.5893  -40.0747   22.2788 H          1 <1>        0.000
     55 H6        -18.1187  -39.8365   22.2177 H          1 <1>        0.000
     56 N1         -9.5670  -41.0600   36.5590 N.4        1 <1>        0.110
     57 C1        -10.2970  -40.9020   35.2820 C.3        1 <1>        0.070
     58 H2         -9.9269  -41.8349   37.0939 H          1 <1>        0.000
     59 H3         -8.5856  -41.2291   36.4029 H          1 <1>        0.000
     60 H5         -9.8923  -40.0537   34.7105 H          1 <1>        0.000
     61 H6        -11.3652  -40.7180   35.4690 H          1 <1>        0.000
     62 H1         -9.6450  -40.2338   37.1311 H          1 <1>        0.000
     63 C1         -6.4070  -42.8150   32.4270 C.3        1 <1>        0.060
     64 O3         -5.9620  -43.0880   33.7580 O.3        1 <1>        0.570
     65 H4         -6.6751  -41.7516   32.3410 H          1 <1>        0.000
     66 H5         -5.6021  -43.0500   31.7151 H          1 <1>        0.000
     67 H6         -5.2011  -42.5571   33.9620 H          1 <1>        0.000
@<TRIPOS>BOND
     1    3    2 ar 
     2    3    4 ar 
     3    2    6 ar 
     4    4    1 ar 
     5    6    5 ar 
     6    1    5 ar 
     7    1    7 1  
     8    2    8 1  
     9    3    9 1  
    10   10   11 1  
    11   10   12 1  
    12    4   10 1  
    13   13   14 1  
    14   13   17 1  
    15   14   15 2  
    16   15   16 1  
    17   16   17 2  
    18   13   18 1  
    19   16   19 1  
    20   10   14 1  
    21   20   21 1  
    22   20   22 1  
    23   21   23 1  
    24   21   24 1  
    25   22   25 1  
    26   22   26 1  
    27   17   22 1  
    28   27   28 am 
    29   28   29 2  
    30   27   30 1  
    31   28   31 1  
    32   27   32 1  
    33   30   33 1  
    34   30   34 1  
    35   31   35 1  
    36   31   36 1  
    37   21   30 1  
    38   38   37 1  
    39   37   39 1  
    40   37   40 1  
    41   38   41 1  
    42   38   42 1  
    43    5   37 1  
    44   43   44 1  
    45   44   45 ar 
    46   44   49 ar 
    47   49   48 ar 
    48   48   47 ar 
    49   47   46 ar 
    50   46   45 ar 
    51   43   50 2  
    52   45   51 1  
    53   46   52 1  
    54   47   53 1  
    55   48   54 1  
    56   49   55 1  
    57   31   43 1  
    58   56   57 1  
    59   56   58 1  
    60   56   59 1  
    61   57   60 1  
    62   57   61 1  
    63   56   62 1  
    64   38   57 1  
    65   63   64 1  
    66   63   65 1  
    67   63   66 1  
    68   64   67 1  
    69    6   63 1  
# Name:          No_6_116
# Creation time: Thu Mar 21 12:29:31 2024


@<TRIPOS>MOLECULE
000003_000001
   38    39     1     1     1
SMALL
USER_CHARGES


@<TRIPOS>ATOM
      1 H         -10.7065  -45.8053   31.3269 H          1 <1>        0.000
      2 C17        -9.9380  -44.0780   32.3390 C.ar       1 <1>        0.150
      3 C20        -7.4650  -44.7920   31.3410 C.ar       1 <1>        0.110
      4 C21        -8.5840  -45.5640   31.0680 C.ar       1 <1>        0.110
      5 C16        -9.8330  -45.1980   31.5350 C.ar       1 <1>        0.220
      6 C18        -8.8360  -43.2880   32.6200 C.ar       1 <1>        0.210
      7 C19        -7.6280  -43.6740   32.1130 C.ar       1 <1>        0.060
      8 H          -6.4902  -45.0660   30.9541 H          1 <1>        0.000
      9 H          -8.9290  -42.3920   33.2230 H          1 <1>        0.000
     10 C1        -11.8310  -42.4630   32.2230 C.3        1 <1>        0.040
     11 C2        -11.2940  -43.7050   32.9280 C.3        1 <1>       -0.140
     12 H4        -11.9429  -42.6709   31.1486 H          1 <1>        0.000
     13 H6        -11.9966  -44.5395   32.7871 H          1 <1>        0.000
     14 H7        -11.1830  -43.4969   34.0024 H          1 <1>        0.000
     15 N1        -13.5530  -40.9050   33.1340 N.pl3      1 <1>        0.700
     16 C1        -13.1660  -42.0960   32.8020 C.2        1 <1>        0.050
     17 N2        -14.0900  -42.9100   33.0420 N.2        1 <1>        0.090
     18 C2        -15.2250  -42.2190   33.5930 C.2        1 <1>        0.090
     19 C3        -14.7770  -40.9470   33.6090 C.2        1 <1>        0.140
     20 H1        -12.9843  -40.0515   33.0391 H          1 <1>        0.000
     21 H3        -16.1869  -42.6200   33.9090 H          1 <1>        0.000
     22 H4        -15.3492  -40.0908   33.9631 H          1 <1>        0.000
     23 N1         -5.7570  -43.2770   33.6730 N.4        1 <1>        0.970
     24 C1         -6.4070  -42.8150   32.4270 C.3        1 <1>        0.060
     25 H2         -5.4521  -44.2347   33.5960 H          1 <1>        0.000
     26 H3         -4.9479  -42.7179   33.8940 H          1 <1>        0.000
     27 H5         -6.7332  -41.7694   32.5281 H          1 <1>        0.000
     28 H7         -5.7077  -42.8820   31.5806 H          1 <1>        0.000
     29 H1         -6.3870  -43.2220   34.4580 H          1 <1>        0.000
     30 N1        -10.8920  -41.3480   32.4110 N.4        1 <1>        0.460
     31 C1        -10.7110  -41.0320   33.8450 C.3        1 <1>       -0.050
     32 H3        -11.2561  -40.5567   31.9038 H          1 <1>        0.000
     33 H5        -10.0059  -40.1969   33.9690 H          1 <1>        0.000
     34 H6        -10.3140  -41.9049   34.3839 H          1 <1>        0.000
     35 H7        -11.6712  -40.7490   34.3011 H          1 <1>        0.000
     36 H1        -10.0195  -41.6102   31.9797 H          1 <1>        0.000
     37 O1         -8.4480  -46.7230   30.3130 O.3        1 <1>        0.570
     38 H2         -9.2802  -46.8140   29.8639 H          1 <1>        0.000
@<TRIPOS>BOND
     1    4    3 ar 
     2    4    5 ar 
     3    1    5 1  
     4    3    7 ar 
     5    5    2 ar 
     6    7    6 ar 
     7    2    6 ar 
     8    3    8 1  
     9    6    9 1  
    10   11   10 1  
    11   10   12 1  
    12   11   13 1  
    13   11   14 1  
    14    2   11 1  
    15   15   16 1  
    16   15   19 1  
    17   16   17 2  
    18   17   18 1  
    19   18   19 2  
    20   15   20 1  
    21   18   21 1  
    22   19   22 1  
    23   10   16 1  
    24   23   24 1  
    25   23   25 1  
    26   23   26 1  
    27   24   27 1  
    28   24   28 1  
    29   23   29 1  
    30    7   24 1  
    31   30   31 1  
    32   30   32 1  
    33   31   33 1  
    34   31   34 1  
    35   31   35 1  
    36   30   36 1  
    37   10   30 1  
    38   37   38 1  
    39    4   37 1  
# Name:          No_6_117
# Creation time: Thu Mar 21 12:29:31 2024


@<TRIPOS>MOLECULE
000003_000002
   38    39     1     1     1
SMALL
USER_CHARGES


@<TRIPOS>ATOM
      1 H         -10.7065  -45.8053   31.3269 H          1 <1>        0.000
      2 C17        -9.9380  -44.0780   32.3390 C.ar       1 <1>        0.150
      3 C20        -7.4650  -44.7920   31.3410 C.ar       1 <1>        0.110
      4 C21        -8.5840  -45.5640   31.0680 C.ar       1 <1>        0.110
      5 C16        -9.8330  -45.1980   31.5350 C.ar       1 <1>        0.220
      6 C18        -8.8360  -43.2880   32.6200 C.ar       1 <1>        0.210
      7 C19        -7.6280  -43.6740   32.1130 C.ar       1 <1>        0.060
      8 H          -6.4902  -45.0660   30.9541 H          1 <1>        0.000
      9 H          -8.9290  -42.3920   33.2230 H          1 <1>        0.000
     10 C1        -11.8310  -42.4630   32.2230 C.3        1 <1>        0.040
     11 C2        -11.2940  -43.7050   32.9280 C.3        1 <1>       -0.140
     12 H4        -11.9429  -42.6709   31.1486 H          1 <1>        0.000
     13 H6        -11.9966  -44.5395   32.7871 H          1 <1>        0.000
     14 H7        -11.1830  -43.4969   34.0024 H          1 <1>        0.000
     15 N1        -13.5530  -40.9050   33.1340 N.pl3      1 <1>        0.700
     16 C1        -13.1660  -42.0960   32.8020 C.2        1 <1>        0.050
     17 N2        -14.0900  -42.9100   33.0420 N.2        1 <1>        0.090
     18 C2        -15.2250  -42.2190   33.5930 C.2        1 <1>        0.090
     19 C3        -14.7770  -40.9470   33.6090 C.2        1 <1>        0.140
     20 H1        -12.9843  -40.0515   33.0391 H          1 <1>        0.000
     21 H3        -16.1869  -42.6200   33.9090 H          1 <1>        0.000
     22 H4        -15.3492  -40.0908   33.9631 H          1 <1>        0.000
     23 N1         -5.7570  -43.2770   33.6730 N.4        1 <1>        0.970
     24 C1         -6.4070  -42.8150   32.4270 C.3        1 <1>        0.060
     25 H2         -5.4521  -44.2347   33.5960 H          1 <1>        0.000
     26 H3         -4.9479  -42.7179   33.8940 H          1 <1>        0.000
     27 H5         -6.7332  -41.7694   32.5281 H          1 <1>        0.000
     28 H7         -5.7077  -42.8820   31.5806 H          1 <1>        0.000
     29 H1         -6.3870  -43.2220   34.4580 H          1 <1>        0.000
     30 N1        -10.8920  -41.3480   32.4110 N.4        1 <1>        0.460
     31 C1        -10.7110  -41.0320   33.8450 C.3        1 <1>       -0.050
     32 H3        -11.2561  -40.5567   31.9038 H          1 <1>        0.000
     33 H5        -10.0059  -40.1969   33.9690 H          1 <1>        0.000
     34 H6        -10.3140  -41.9049   34.3839 H          1 <1>        0.000
     35 H7        -11.6712  -40.7490   34.3011 H          1 <1>        0.000
     36 H1        -10.0195  -41.6102   31.9797 H          1 <1>        0.000
     37 O1         -8.4480  -46.7230   30.3130 O.3        1 <1>        0.570
     38 H2         -7.7790  -46.5130   29.6720 H          1 <1>        0.000
@<TRIPOS>BOND
     1    4    3 ar 
     2    4    5 ar 
     3    1    5 1  
     4    3    7 ar 
     5    5    2 ar 
     6    7    6 ar 
     7    2    6 ar 
     8    3    8 1  
     9    6    9 1  
    10   11   10 1  
    11   10   12 1  
    12   11   13 1  
    13   11   14 1  
    14    2   11 1  
    15   15   16 1  
    16   15   19 1  
    17   16   17 2  
    18   17   18 1  
    19   18   19 2  
    20   15   20 1  
    21   18   21 1  
    22   19   22 1  
    23   10   16 1  
    24   23   24 1  
    25   23   25 1  
    26   23   26 1  
    27   24   27 1  
    28   24   28 1  
    29   23   29 1  
    30    7   24 1  
    31   30   31 1  
    32   30   32 1  
    33   31   33 1  
    34   31   34 1  
    35   31   35 1  
    36   30   36 1  
    37   10   30 1  
    38   37   38 1  
    39    4   37 1  
# Name:          No_7_16
# Creation time: Thu Mar 21 12:29:31 2024


@<TRIPOS>MOLECULE
000003_000003
   38    39     1     1     1
SMALL
USER_CHARGES


@<TRIPOS>ATOM
      1 H         -10.7065  -45.8053   31.3269 H          1 <1>        0.000
      2 C17        -9.9380  -44.0780   32.3390 C.ar       1 <1>        0.150
      3 C20        -7.4650  -44.7920   31.3410 C.ar       1 <1>        0.110
      4 C21        -8.5840  -45.5640   31.0680 C.ar       1 <1>        0.110
      5 C16        -9.8330  -45.1980   31.5350 C.ar       1 <1>        0.220
      6 C18        -8.8360  -43.2880   32.6200 C.ar       1 <1>        0.210
      7 C19        -7.6280  -43.6740   32.1130 C.ar       1 <1>        0.060
      8 H          -6.4902  -45.0660   30.9541 H          1 <1>        0.000
      9 H          -8.9290  -42.3920   33.2230 H          1 <1>        0.000
     10 C1        -11.8310  -42.4630   32.2230 C.3        1 <1>        0.040
     11 C2        -11.2940  -43.7050   32.9280 C.3        1 <1>       -0.140
     12 H4        -11.9429  -42.6709   31.1486 H          1 <1>        0.000
     13 H6        -11.9966  -44.5395   32.7871 H          1 <1>        0.000
     14 H7        -11.1830  -43.4969   34.0024 H          1 <1>        0.000
     15 N1        -13.5530  -40.9050   33.1340 N.pl3      1 <1>        0.700
     16 C1        -13.1660  -42.0960   32.8020 C.2        1 <1>        0.050
     17 N2        -14.0900  -42.9100   33.0420 N.2        1 <1>        0.090
     18 C2        -15.2250  -42.2190   33.5930 C.2        1 <1>        0.090
     19 C3        -14.7770  -40.9470   33.6090 C.2        1 <1>        0.140
     20 H1        -12.9843  -40.0515   33.0391 H          1 <1>        0.000
     21 H3        -16.1869  -42.6200   33.9090 H          1 <1>        0.000
     22 H4        -15.3492  -40.0908   33.9631 H          1 <1>        0.000
     23 N1         -5.7570  -43.2770   33.6730 N.4        1 <1>        0.970
     24 C1         -6.4070  -42.8150   32.4270 C.3        1 <1>        0.060
     25 H2         -5.4521  -44.2347   33.5960 H          1 <1>        0.000
     26 H3         -4.9479  -42.7179   33.8940 H          1 <1>        0.000
     27 H5         -6.7332  -41.7694   32.5281 H          1 <1>        0.000
     28 H7         -5.7077  -42.8820   31.5806 H          1 <1>        0.000
     29 H1         -6.3870  -43.2220   34.4580 H          1 <1>        0.000
     30 N1        -10.8920  -41.3480   32.4110 N.4        1 <1>        0.460
     31 C1        -10.7110  -41.0320   33.8450 C.3        1 <1>       -0.050
     32 H3        -11.2561  -40.5567   31.9038 H          1 <1>        0.000
     33 H5        -10.0059  -40.1969   33.9690 H          1 <1>        0.000
     34 H6        -10.3140  -41.9049   34.3839 H          1 <1>        0.000
     35 H7        -11.6712  -40.7490   34.3011 H          1 <1>        0.000
     36 H1        -10.0195  -41.6102   31.9797 H          1 <1>        0.000
     37 O1         -8.4480  -46.7230   30.3130 O.3        1 <1>        0.570
     38 H2         -7.6828  -47.1541   30.6751 H          1 <1>        0.000
@<TRIPOS>BOND
     1    4    3 ar 
     2    4    5 ar 
     3    1    5 1  
     4    3    7 ar 
     5    5    2 ar 
     6    7    6 ar 
     7    2    6 ar 
     8    3    8 1  
     9    6    9 1  
    10   11   10 1  
    11   10   12 1  
    12   11   13 1  
    13   11   14 1  
    14    2   11 1  
    15   15   16 1  
    16   15   19 1  
    17   16   17 2  
    18   17   18 1  
    19   18   19 2  
    20   15   20 1  
    21   18   21 1  
    22   19   22 1  
    23   10   16 1  
    24   23   24 1  
    25   23   25 1  
    26   23   26 1  
    27   24   27 1  
    28   24   28 1  
    29   23   29 1  
    30    7   24 1  
    31   30   31 1  
    32   30   32 1  
    33   31   33 1  
    34   31   34 1  
    35   31   35 1  
    36   30   36 1  
    37   10   30 1  
    38   37   38 1  
    39    4   37 1  
# Name:          No_7_17
# Creation time: Thu Mar 21 12:29:31 2024


@<TRIPOS>MOLECULE
000003_000004
   38    39     1     1     1
SMALL
USER_CHARGES


@<TRIPOS>ATOM
      1 H         -10.7065  -45.8053   31.3269 H          1 <1>        0.000
      2 C17        -9.9380  -44.0780   32.3390 C.ar       1 <1>        0.150
      3 C20        -7.4650  -44.7920   31.3410 C.ar       1 <1>        0.110
      4 C21        -8.5840  -45.5640   31.0680 C.ar       1 <1>        0.110
      5 C16        -9.8330  -45.1980   31.5350 C.ar       1 <1>        0.220
      6 C18        -8.8360  -43.2880   32.6200 C.ar       1 <1>        0.210
      7 C19        -7.6280  -43.6740   32.1130 C.ar       1 <1>        0.060
      8 H          -6.4902  -45.0660   30.9541 H          1 <1>        0.000
      9 H          -8.9290  -42.3920   33.2230 H          1 <1>        0.000
     10 C1        -11.8310  -42.4630   32.2230 C.3        1 <1>        0.040
     11 C2        -11.2940  -43.7050   32.9280 C.3        1 <1>       -0.140
     12 H4        -11.9429  -42.6709   31.1486 H          1 <1>        0.000
     13 H6        -11.9966  -44.5395   32.7871 H          1 <1>        0.000
     14 H7        -11.1830  -43.4969   34.0024 H          1 <1>        0.000
     15 N1        -13.5530  -40.9050   33.1340 N.pl3      1 <1>        0.700
     16 C1        -13.1660  -42.0960   32.8020 C.2        1 <1>        0.050
     17 N2        -14.0900  -42.9100   33.0420 N.2        1 <1>        0.090
     18 C2        -15.2250  -42.2190   33.5930 C.2        1 <1>        0.090
     19 C3        -14.7770  -40.9470   33.6090 C.2        1 <1>        0.140
     20 H1        -12.9843  -40.0515   33.0391 H          1 <1>        0.000
     21 H3        -16.1869  -42.6200   33.9090 H          1 <1>        0.000
     22 H4        -15.3492  -40.0908   33.9631 H          1 <1>        0.000
     23 N1         -5.7570  -43.2770   33.6730 N.4        1 <1>        0.970
     24 C1         -6.4070  -42.8150   32.4270 C.3        1 <1>        0.060
     25 H2         -5.4521  -44.2347   33.5960 H          1 <1>        0.000
     26 H3         -4.9479  -42.7179   33.8940 H          1 <1>        0.000
     27 H5         -6.7332  -41.7694   32.5281 H          1 <1>        0.000
     28 H7         -5.7077  -42.8820   31.5806 H          1 <1>        0.000
     29 H1         -6.3870  -43.2220   34.4580 H          1 <1>        0.000
     30 N1        -10.8920  -41.3480   32.4110 N.4        1 <1>        0.460
     31 C1        -10.7110  -41.0320   33.8450 C.3        1 <1>       -0.050
     32 H3        -11.2561  -40.5567   31.9038 H          1 <1>        0.000
     33 H5        -10.0059  -40.1969   33.9690 H          1 <1>        0.000
     34 H6        -10.3140  -41.9049   34.3839 H          1 <1>        0.000
     35 H7        -11.6712  -40.7490   34.3011 H          1 <1>        0.000
     36 H1        -10.0195  -41.6102   31.9797 H          1 <1>        0.000
     37 O1         -8.4480  -46.7230   30.3130 O.3        1 <1>        0.570
     38 H2         -9.0697  -47.3308   30.6958 H          1 <1>        0.000
@<TRIPOS>BOND
     1    4    3 ar 
     2    4    5 ar 
     3    1    5 1  
     4    3    7 ar 
     5    5    2 ar 
     6    7    6 ar 
     7    2    6 ar 
     8    3    8 1  
     9    6    9 1  
    10   11   10 1  
    11   10   12 1  
    12   11   13 1  
    13   11   14 1  
    14    2   11 1  
    15   15   16 1  
    16   15   19 1  
    17   16   17 2  
    18   17   18 1  
    19   18   19 2  
    20   15   20 1  
    21   18   21 1  
    22   19   22 1  
    23   10   16 1  
    24   23   24 1  
    25   23   25 1  
    26   23   26 1  
    27   24   27 1  
    28   24   28 1  
    29   23   29 1  
    30    7   24 1  
    31   30   31 1  
    32   30   32 1  
    33   31   33 1  
    34   31   34 1  
    35   31   35 1  
    36   30   36 1  
    37   10   30 1  
    38   37   38 1  
    39    4   37 1  
# Name:          No_7_18
# Creation time: Thu Mar 21 12:29:31 2024


@<TRIPOS>MOLECULE
000003_000005
   38    39     1     1     1
SMALL
USER_CHARGES


@<TRIPOS>ATOM
      1 H         -10.7065  -45.8053   31.3269 H          1 <1>        0.000
      2 C17        -9.9380  -44.0780   32.3390 C.ar       1 <1>        0.150
      3 C20        -7.4650  -44.7920   31.3410 C.ar       1 <1>        0.110
      4 C21        -8.5840  -45.5640   31.0680 C.ar       1 <1>        0.110
      5 C16        -9.8330  -45.1980   31.5350 C.ar       1 <1>        0.220
      6 C18        -8.8360  -43.2880   32.6200 C.ar       1 <1>        0.210
      7 C19        -7.6280  -43.6740   32.1130 C.ar       1 <1>        0.060
      8 H          -6.4902  -45.0660   30.9541 H          1 <1>        0.000
      9 H          -8.9290  -42.3920   33.2230 H          1 <1>        0.000
     10 C1        -11.8310  -42.4630   32.2230 C.3        1 <1>        0.040
     11 C2        -11.2940  -43.7050   32.9280 C.3        1 <1>       -0.140
     12 H4        -11.9429  -42.6709   31.1486 H          1 <1>        0.000
     13 H6        -11.9966  -44.5395   32.7871 H          1 <1>        0.000
     14 H7        -11.1830  -43.4969   34.0024 H          1 <1>        0.000
     15 N1        -13.5530  -40.9050   33.1340 N.pl3      1 <1>        0.700
     16 C1        -13.1660  -42.0960   32.8020 C.2        1 <1>        0.050
     17 N2        -14.0900  -42.9100   33.0420 N.2        1 <1>        0.090
     18 C2        -15.2250  -42.2190   33.5930 C.2        1 <1>        0.090
     19 C3        -14.7770  -40.9470   33.6090 C.2        1 <1>        0.140
     20 H1        -12.9843  -40.0515   33.0391 H          1 <1>        0.000
     21 H3        -16.1869  -42.6200   33.9090 H          1 <1>        0.000
     22 H4        -15.3492  -40.0908   33.9631 H          1 <1>        0.000
     23 N1         -5.7570  -43.2770   33.6730 N.4        1 <1>        0.970
     24 C1         -6.4070  -42.8150   32.4270 C.3        1 <1>        0.060
     25 H2         -5.4521  -44.2347   33.5960 H          1 <1>        0.000
     26 H3         -4.9479  -42.7179   33.8940 H          1 <1>        0.000
     27 H5         -6.7332  -41.7694   32.5281 H          1 <1>        0.000
     28 H7         -5.7077  -42.8820   31.5806 H          1 <1>        0.000
     29 H1         -6.3870  -43.2220   34.4580 H          1 <1>        0.000
     30 N1        -10.8920  -41.3480   32.4110 N.4        1 <1>        0.460
     31 C1        -10.7110  -41.0320   33.8450 C.3        1 <1>       -0.050
     32 H3        -11.2561  -40.5567   31.9038 H          1 <1>        0.000
     33 H5        -10.0059  -40.1969   33.9690 H          1 <1>        0.000
     34 H6        -10.3140  -41.9049   34.3839 H          1 <1>        0.000
     35 H7        -11.6712  -40.7490   34.3011 H          1 <1>        0.000
     36 H1        -10.0195  -41.6102   31.9797 H          1 <1>        0.000
     37 O1         -8.4480  -46.7230   30.3130 O.3        1 <1>        0.570
     38 H2         -9.3195  -47.1008   30.2990 H          1 <1>        0.000
@<TRIPOS>BOND
     1    4    3 ar 
     2    4    5 ar 
     3    1    5 1  
     4    3    7 ar 
     5    5    2 ar 
     6    7    6 ar 
     7    2    6 ar 
     8    3    8 1  
     9    6    9 1  
    10   11   10 1  
    11   10   12 1  
    12   11   13 1  
    13   11   14 1  
    14    2   11 1  
    15   15   16 1  
    16   15   19 1  
    17   16   17 2  
    18   17   18 1  
    19   18   19 2  
    20   15   20 1  
    21   18   21 1  
    22   19   22 1  
    23   10   16 1  
    24   23   24 1  
    25   23   25 1  
    26   23   26 1  
    27   24   27 1  
    28   24   28 1  
    29   23   29 1  
    30    7   24 1  
    31   30   31 1  
    32   30   32 1  
    33   31   33 1  
    34   31   34 1  
    35   31   35 1  
    36   30   36 1  
    37   10   30 1  
    38   37   38 1  
    39    4   37 1  
# Name:          No_7_19
# Creation time: Thu Mar 21 12:29:31 2024


@<TRIPOS>MOLECULE
000003_000006
   38    39     1     1     1
SMALL
USER_CHARGES


@<TRIPOS>ATOM
      1 H         -10.7065  -45.8053   31.3269 H          1 <1>        0.000
      2 C17        -9.9380  -44.0780   32.3390 C.ar       1 <1>        0.150
      3 C20        -7.4650  -44.7920   31.3410 C.ar       1 <1>        0.110
      4 C21        -8.5840  -45.5640   31.0680 C.ar       1 <1>        0.110
      5 C16        -9.8330  -45.1980   31.5350 C.ar       1 <1>        0.220
      6 C18        -8.8360  -43.2880   32.6200 C.ar       1 <1>        0.210
      7 C19        -7.6280  -43.6740   32.1130 C.ar       1 <1>        0.060
      8 H          -6.4902  -45.0660   30.9541 H          1 <1>        0.000
      9 H          -8.9290  -42.3920   33.2230 H          1 <1>        0.000
     10 C1        -11.8310  -42.4630   32.2230 C.3        1 <1>        0.040
     11 C2        -11.2940  -43.7050   32.9280 C.3        1 <1>       -0.140
     12 H4        -11.9429  -42.6709   31.1486 H          1 <1>        0.000
     13 H6        -11.9966  -44.5395   32.7871 H          1 <1>        0.000
     14 H7        -11.1830  -43.4969   34.0024 H          1 <1>        0.000
     15 N1        -13.5530  -40.9050   33.1340 N.pl3      1 <1>        0.700
     16 C1        -13.1660  -42.0960   32.8020 C.2        1 <1>        0.050
     17 N2        -14.0900  -42.9100   33.0420 N.2        1 <1>        0.090
     18 C2        -15.2250  -42.2190   33.5930 C.2        1 <1>        0.090
     19 C3        -14.7770  -40.9470   33.6090 C.2        1 <1>        0.140
     20 H1        -12.9843  -40.0515   33.0391 H          1 <1>        0.000
     21 H3        -16.1869  -42.6200   33.9090 H          1 <1>        0.000
     22 H4        -15.3492  -40.0908   33.9631 H          1 <1>        0.000
     23 N1         -5.7570  -43.2770   33.6730 N.4        1 <1>        0.970
     24 C1         -6.4070  -42.8150   32.4270 C.3        1 <1>        0.060
     25 H2         -5.4521  -44.2347   33.5960 H          1 <1>        0.000
     26 H3         -4.9479  -42.7179   33.8940 H          1 <1>        0.000
     27 H5         -6.7332  -41.7694   32.5281 H          1 <1>        0.000
     28 H7         -5.7077  -42.8820   31.5806 H          1 <1>        0.000
     29 H1         -6.3870  -43.2220   34.4580 H          1 <1>        0.000
     30 N1        -10.8920  -41.3480   32.4110 N.4        1 <1>        0.460
     31 C1        -10.7110  -41.0320   33.8450 C.3        1 <1>       -0.050
     32 H3        -11.2561  -40.5567   31.9038 H          1 <1>        0.000
     33 H5        -10.0059  -40.1969   33.9690 H          1 <1>        0.000
     34 H6        -10.3140  -41.9049   34.3839 H          1 <1>        0.000
     35 H7        -11.6712  -40.7490   34.3011 H          1 <1>        0.000
     36 H1        -10.0195  -41.6102   31.9797 H          1 <1>        0.000
     37 O1         -8.4480  -46.7230   30.3130 O.3        1 <1>        0.570
     38 H2         -9.2802  -46.8140   29.8639 H          1 <1>        0.000
@<TRIPOS>BOND
     1    4    3 ar 
     2    4    5 ar 
     3    1    5 1  
     4    3    7 ar 
     5    5    2 ar 
     6    7    6 ar 
     7    2    6 ar 
     8    3    8 1  
     9    6    9 1  
    10   11   10 1  
    11   10   12 1  
    12   11   13 1  
    13   11   14 1  
    14    2   11 1  
    15   15   16 1  
    16   15   19 1  
    17   16   17 2  
    18   17   18 1  
    19   18   19 2  
    20   15   20 1  
    21   18   21 1  
    22   19   22 1  
    23   10   16 1  
    24   23   24 1  
    25   23   25 1  
    26   23   26 1  
    27   24   27 1  
    28   24   28 1  
    29   23   29 1  
    30    7   24 1  
    31   30   31 1  
    32   30   32 1  
    33   31   33 1  
    34   31   34 1  
    35   31   35 1  
    36   30   36 1  
    37   10   30 1  
    38   37   38 1  
    39    4   37 1  
# Name:          No_6_112
# Creation time: Thu Mar 21 12:29:31 2024


@<TRIPOS>MOLECULE
000003_000007
   38    39     1     1     1
SMALL
USER_CHARGES


@<TRIPOS>ATOM
      1 H         -10.7065  -45.8053   31.3269 H          1 <1>        0.000
      2 C17        -9.9380  -44.0780   32.3390 C.ar       1 <1>        0.150
      3 C20        -7.4650  -44.7920   31.3410 C.ar       1 <1>        0.110
      4 C21        -8.5840  -45.5640   31.0680 C.ar       1 <1>        0.110
      5 C16        -9.8330  -45.1980   31.5350 C.ar       1 <1>        0.220
      6 C18        -8.8360  -43.2880   32.6200 C.ar       1 <1>        0.210
      7 C19        -7.6280  -43.6740   32.1130 C.ar       1 <1>        0.060
      8 H          -6.4902  -45.0660   30.9541 H          1 <1>        0.000
      9 H          -8.9290  -42.3920   33.2230 H          1 <1>        0.000
     10 C1        -11.8310  -42.4630   32.2230 C.3        1 <1>        0.040
     11 C2        -11.2940  -43.7050   32.9280 C.3        1 <1>       -0.140
     12 H4        -11.9429  -42.6709   31.1486 H          1 <1>        0.000
     13 H6        -11.9966  -44.5395   32.7871 H          1 <1>        0.000
     14 H7        -11.1830  -43.4969   34.0024 H          1 <1>        0.000
     15 N1        -13.5530  -40.9050   33.1340 N.pl3      1 <1>        0.700
     16 C1        -13.1660  -42.0960   32.8020 C.2        1 <1>        0.050
     17 N2        -14.0900  -42.9100   33.0420 N.2        1 <1>        0.090
     18 C2        -15.2250  -42.2190   33.5930 C.2        1 <1>        0.090
     19 C3        -14.7770  -40.9470   33.6090 C.2        1 <1>        0.140
     20 H1        -12.9843  -40.0515   33.0391 H          1 <1>        0.000
     21 H3        -16.1869  -42.6200   33.9090 H          1 <1>        0.000
     22 H4        -15.3492  -40.0908   33.9631 H          1 <1>        0.000
     23 N1         -5.7570  -43.2770   33.6730 N.4        1 <1>        0.970
     24 C1         -6.4070  -42.8150   32.4270 C.3        1 <1>        0.060
     25 H2         -5.4521  -44.2347   33.5960 H          1 <1>        0.000
     26 H3         -4.9479  -42.7179   33.8940 H          1 <1>        0.000
     27 H5         -6.7332  -41.7694   32.5281 H          1 <1>        0.000
     28 H7         -5.7077  -42.8820   31.5806 H          1 <1>        0.000
     29 H1         -6.3870  -43.2220   34.4580 H          1 <1>        0.000
     30 N1        -10.8920  -41.3480   32.4110 N.4        1 <1>        0.460
     31 C1        -10.7110  -41.0320   33.8450 C.3        1 <1>       -0.050
     32 H3        -11.2561  -40.5567   31.9038 H          1 <1>        0.000
     33 H5        -10.0059  -40.1969   33.9690 H          1 <1>        0.000
     34 H6        -10.3140  -41.9049   34.3839 H          1 <1>        0.000
     35 H7        -11.6712  -40.7490   34.3011 H          1 <1>        0.000
     36 H1        -10.0195  -41.6102   31.9797 H          1 <1>        0.000
     37 O1         -8.4480  -46.7230   30.3130 O.3        1 <1>        0.570
     38 H2         -7.5106  -46.8711   30.2710 H          1 <1>        0.000
@<TRIPOS>BOND
     1    4    3 ar 
     2    4    5 ar 
     3    1    5 1  
     4    3    7 ar 
     5    5    2 ar 
     6    7    6 ar 
     7    2    6 ar 
     8    3    8 1  
     9    6    9 1  
    10   11   10 1  
    11   10   12 1  
    12   11   13 1  
    13   11   14 1  
    14    2   11 1  
    15   15   16 1  
    16   15   19 1  
    17   16   17 2  
    18   17   18 1  
    19   18   19 2  
    20   15   20 1  
    21   18   21 1  
    22   19   22 1  
    23   10   16 1  
    24   23   24 1  
    25   23   25 1  
    26   23   26 1  
    27   24   27 1  
    28   24   28 1  
    29   23   29 1  
    30    7   24 1  
    31   30   31 1  
    32   30   32 1  
    33   31   33 1  
    34   31   34 1  
    35   31   35 1  
    36   30   36 1  
    37   10   30 1  
    38   37   38 1  
    39    4   37 1  
# Name:          No_6_113
# Creation time: Thu Mar 21 12:29:31 2024


@<TRIPOS>MOLECULE
000003_000008
   38    39     1     1     1
SMALL
USER_CHARGES


@<TRIPOS>ATOM
      1 H         -10.7065  -45.8053   31.3269 H          1 <1>        0.000
      2 C17        -9.9380  -44.0780   32.3390 C.ar       1 <1>        0.150
      3 C20        -7.4650  -44.7920   31.3410 C.ar       1 <1>        0.110
      4 C21        -8.5840  -45.5640   31.0680 C.ar       1 <1>        0.110
      5 C16        -9.8330  -45.1980   31.5350 C.ar       1 <1>        0.220
      6 C18        -8.8360  -43.2880   32.6200 C.ar       1 <1>        0.210
      7 C19        -7.6280  -43.6740   32.1130 C.ar       1 <1>        0.060
      8 H          -6.4902  -45.0660   30.9541 H          1 <1>        0.000
      9 H          -8.9290  -42.3920   33.2230 H          1 <1>        0.000
     10 C1        -11.8310  -42.4630   32.2230 C.3        1 <1>        0.040
     11 C2        -11.2940  -43.7050   32.9280 C.3        1 <1>       -0.140
     12 H4        -11.9429  -42.6709   31.1486 H          1 <1>        0.000
     13 H6        -11.9966  -44.5395   32.7871 H          1 <1>        0.000
     14 H7        -11.1830  -43.4969   34.0024 H          1 <1>        0.000
     15 N1        -13.5530  -40.9050   33.1340 N.pl3      1 <1>        0.700
     16 C1        -13.1660  -42.0960   32.8020 C.2        1 <1>        0.050
     17 N2        -14.0900  -42.9100   33.0420 N.2        1 <1>        0.090
     18 C2        -15.2250  -42.2190   33.5930 C.2        1 <1>        0.090
     19 C3        -14.7770  -40.9470   33.6090 C.2        1 <1>        0.140
     20 H1        -12.9843  -40.0515   33.0391 H          1 <1>        0.000
     21 H3        -16.1869  -42.6200   33.9090 H          1 <1>        0.000
     22 H4        -15.3492  -40.0908   33.9631 H          1 <1>        0.000
     23 N1         -5.7570  -43.2770   33.6730 N.4        1 <1>        0.970
     24 C1         -6.4070  -42.8150   32.4270 C.3        1 <1>        0.060
     25 H2         -5.4521  -44.2347   33.5960 H          1 <1>        0.000
     26 H3         -4.9479  -42.7179   33.8940 H          1 <1>        0.000
     27 H5         -6.7332  -41.7694   32.5281 H          1 <1>        0.000
     28 H7         -5.7077  -42.8820   31.5806 H          1 <1>        0.000
     29 H1         -6.3870  -43.2220   34.4580 H          1 <1>        0.000
     30 N1        -10.8920  -41.3480   32.4110 N.4        1 <1>        0.460
     31 C1        -10.7110  -41.0320   33.8450 C.3        1 <1>       -0.050
     32 H3        -11.2561  -40.5567   31.9038 H          1 <1>        0.000
     33 H5        -10.0059  -40.1969   33.9690 H          1 <1>        0.000
     34 H6        -10.3140  -41.9049   34.3839 H          1 <1>        0.000
     35 H7        -11.6712  -40.7490   34.3011 H          1 <1>        0.000
     36 H1        -10.0195  -41.6102   31.9797 H          1 <1>        0.000
     37 O1         -8.4480  -46.7230   30.3130 O.3        1 <1>        0.570
     38 H2         -7.6828  -47.1541   30.6751 H          1 <1>        0.000
@<TRIPOS>BOND
     1    4    3 ar 
     2    4    5 ar 
     3    1    5 1  
     4    3    7 ar 
     5    5    2 ar 
     6    7    6 ar 
     7    2    6 ar 
     8    3    8 1  
     9    6    9 1  
    10   11   10 1  
    11   10   12 1  
    12   11   13 1  
    13   11   14 1  
    14    2   11 1  
    15   15   16 1  
    16   15   19 1  
    17   16   17 2  
    18   17   18 1  
    19   18   19 2  
    20   15   20 1  
    21   18   21 1  
    22   19   22 1  
    23   10   16 1  
    24   23   24 1  
    25   23   25 1  
    26   23   26 1  
    27   24   27 1  
    28   24   28 1  
    29   23   29 1  
    30    7   24 1  
    31   30   31 1  
    32   30   32 1  
    33   31   33 1  
    34   31   34 1  
    35   31   35 1  
    36   30   36 1  
    37   10   30 1  
    38   37   38 1  
    39    4   37 1  
# Name:          No_6_114
# Creation time: Thu Mar 21 12:29:31 2024


@<TRIPOS>MOLECULE
000003_000009
   38    39     1     1     1
SMALL
USER_CHARGES


@<TRIPOS>ATOM
      1 H         -10.7065  -45.8053   31.3269 H          1 <1>        0.000
      2 C17        -9.9380  -44.0780   32.3390 C.ar       1 <1>        0.150
      3 C20        -7.4650  -44.7920   31.3410 C.ar       1 <1>        0.110
      4 C21        -8.5840  -45.5640   31.0680 C.ar       1 <1>        0.110
      5 C16        -9.8330  -45.1980   31.5350 C.ar       1 <1>        0.220
      6 C18        -8.8360  -43.2880   32.6200 C.ar       1 <1>        0.210
      7 C19        -7.6280  -43.6740   32.1130 C.ar       1 <1>        0.060
      8 H          -6.4902  -45.0660   30.9541 H          1 <1>        0.000
      9 H          -8.9290  -42.3920   33.2230 H          1 <1>        0.000
     10 C1        -11.8310  -42.4630   32.2230 C.3        1 <1>        0.040
     11 C2        -11.2940  -43.7050   32.9280 C.3        1 <1>       -0.140
     12 H4        -11.9429  -42.6709   31.1486 H          1 <1>        0.000
     13 H6        -11.9966  -44.5395   32.7871 H          1 <1>        0.000
     14 H7        -11.1830  -43.4969   34.0024 H          1 <1>        0.000
     15 N1        -13.5530  -40.9050   33.1340 N.pl3      1 <1>        0.700
     16 C1        -13.1660  -42.0960   32.8020 C.2        1 <1>        0.050
     17 N2        -14.0900  -42.9100   33.0420 N.2        1 <1>        0.090
     18 C2        -15.2250  -42.2190   33.5930 C.2        1 <1>        0.090
     19 C3        -14.7770  -40.9470   33.6090 C.2        1 <1>        0.140
     20 H1        -12.9843  -40.0515   33.0391 H          1 <1>        0.000
     21 H3        -16.1869  -42.6200   33.9090 H          1 <1>        0.000
     22 H4        -15.3492  -40.0908   33.9631 H          1 <1>        0.000
     23 N1         -5.7570  -43.2770   33.6730 N.4        1 <1>        0.970
     24 C1         -6.4070  -42.8150   32.4270 C.3        1 <1>        0.060
     25 H2         -5.4521  -44.2347   33.5960 H          1 <1>        0.000
     26 H3         -4.9479  -42.7179   33.8940 H          1 <1>        0.000
     27 H5         -6.7332  -41.7694   32.5281 H          1 <1>        0.000
     28 H7         -5.7077  -42.8820   31.5806 H          1 <1>        0.000
     29 H1         -6.3870  -43.2220   34.4580 H          1 <1>        0.000
     30 N1        -10.8920  -41.3480   32.4110 N.4        1 <1>        0.460
     31 C1        -10.7110  -41.0320   33.8450 C.3        1 <1>       -0.050
     32 H3        -11.2561  -40.5567   31.9038 H          1 <1>        0.000
     33 H5        -10.0059  -40.1969   33.9690 H          1 <1>        0.000
     34 H6        -10.3140  -41.9049   34.3839 H          1 <1>        0.000
     35 H7        -11.6712  -40.7490   34.3011 H          1 <1>        0.000
     36 H1        -10.0195  -41.6102   31.9797 H          1 <1>        0.000
     37 O1         -8.4480  -46.7230   30.3130 O.3        1 <1>        0.570
     38 H2         -9.0697  -47.3308   30.6958 H          1 <1>        0.000
@<TRIPOS>BOND
     1    4    3 ar 
     2    4    5 ar 
     3    1    5 1  
     4    3    7 ar 
     5    5    2 ar 
     6    7    6 ar 
     7    2    6 ar 
     8    3    8 1  
     9    6    9 1  
    10   11   10 1  
    11   10   12 1  
    12   11   13 1  
    13   11   14 1  
    14    2   11 1  
    15   15   16 1  
    16   15   19 1  
    17   16   17 2  
    18   17   18 1  
    19   18   19 2  
    20   15   20 1  
    21   18   21 1  
    22   19   22 1  
    23   10   16 1  
    24   23   24 1  
    25   23   25 1  
    26   23   26 1  
    27   24   27 1  
    28   24   28 1  
    29   23   29 1  
    30    7   24 1  
    31   30   31 1  
    32   30   32 1  
    33   31   33 1  
    34   31   34 1  
    35   31   35 1  
    36   30   36 1  
    37   10   30 1  
    38   37   38 1  
    39    4   37 1  
# Name:          No_6_115
# Creation time: Thu Mar 21 12:29:31 2024


@<TRIPOS>MOLECULE
000003_000010
   38    39     1     1     1
SMALL
USER_CHARGES


@<TRIPOS>ATOM
      1 H         -10.7065  -45.8053   31.3269 H          1 <1>        0.000
      2 C17        -9.9380  -44.0780   32.3390 C.ar       1 <1>        0.150
      3 C20        -7.4650  -44.7920   31.3410 C.ar       1 <1>        0.110
      4 C21        -8.5840  -45.5640   31.0680 C.ar       1 <1>        0.110
      5 C16        -9.8330  -45.1980   31.5350 C.ar       1 <1>        0.220
      6 C18        -8.8360  -43.2880   32.6200 C.ar       1 <1>        0.210
      7 C19        -7.6280  -43.6740   32.1130 C.ar       1 <1>        0.060
      8 H          -6.4902  -45.0660   30.9541 H          1 <1>        0.000
      9 H          -8.9290  -42.3920   33.2230 H          1 <1>        0.000
     10 C1        -11.8310  -42.4630   32.2230 C.3        1 <1>        0.040
     11 C2        -11.2940  -43.7050   32.9280 C.3        1 <1>       -0.140
     12 H4        -11.9429  -42.6709   31.1486 H          1 <1>        0.000
     13 H6        -11.9966  -44.5395   32.7871 H          1 <1>        0.000
     14 H7        -11.1830  -43.4969   34.0024 H          1 <1>        0.000
     15 N1        -13.5530  -40.9050   33.1340 N.pl3      1 <1>        0.700
     16 C1        -13.1660  -42.0960   32.8020 C.2        1 <1>        0.050
     17 N2        -14.0900  -42.9100   33.0420 N.2        1 <1>        0.090
     18 C2        -15.2250  -42.2190   33.5930 C.2        1 <1>        0.090
     19 C3        -14.7770  -40.9470   33.6090 C.2        1 <1>        0.140
     20 H1        -12.9843  -40.0515   33.0391 H          1 <1>        0.000
     21 H3        -16.1869  -42.6200   33.9090 H          1 <1>        0.000
     22 H4        -15.3492  -40.0908   33.9631 H          1 <1>        0.000
     23 N1         -5.7570  -43.2770   33.6730 N.4        1 <1>        0.970
     24 C1         -6.4070  -42.8150   32.4270 C.3        1 <1>        0.060
     25 H2         -5.4521  -44.2347   33.5960 H          1 <1>        0.000
     26 H3         -4.9479  -42.7179   33.8940 H          1 <1>        0.000
     27 H5         -6.7332  -41.7694   32.5281 H          1 <1>        0.000
     28 H7         -5.7077  -42.8820   31.5806 H          1 <1>        0.000
     29 H1         -6.3870  -43.2220   34.4580 H          1 <1>        0.000
     30 N1        -10.8920  -41.3480   32.4110 N.4        1 <1>        0.460
     31 C1        -10.7110  -41.0320   33.8450 C.3        1 <1>       -0.050
     32 H3        -11.2561  -40.5567   31.9038 H          1 <1>        0.000
     33 H5        -10.0059  -40.1969   33.9690 H          1 <1>        0.000
     34 H6        -10.3140  -41.9049   34.3839 H          1 <1>        0.000
     35 H7        -11.6712  -40.7490   34.3011 H          1 <1>        0.000
     36 H1        -10.0195  -41.6102   31.9797 H          1 <1>        0.000
     37 O1         -8.4480  -46.7230   30.3130 O.3        1 <1>        0.570
     38 H2         -9.3195  -47.1008   30.2990 H          1 <1>        0.000
@<TRIPOS>BOND
     1    4    3 ar 
     2    4    5 ar 
     3    1    5 1  
     4    3    7 ar 
     5    5    2 ar 
     6    7    6 ar 
     7    2    6 ar 
     8    3    8 1  
     9    6    9 1  
    10   11   10 1  
    11   10   12 1  
    12   11   13 1  
    13   11   14 1  
    14    2   11 1  
    15   15   16 1  
    16   15   19 1  
    17   16   17 2  
    18   17   18 1  
    19   18   19 2  
    20   15   20 1  
    21   18   21 1  
    22   19   22 1  
    23   10   16 1  
    24   23   24 1  
    25   23   25 1  
    26   23   26 1  
    27   24   27 1  
    28   24   28 1  
    29   23   29 1  
    30    7   24 1  
    31   30   31 1  
    32   30   32 1  
    33   31   33 1  
    34   31   34 1  
    35   31   35 1  
    36   30   36 1  
    37   10   30 1  
    38   37   38 1  
    39    4   37 1  
