REMARK  Name = =
REMARK  0 active torsions:
REMARK  status: ('A' for Active; 'I' for Inactive)
REMARK                            x       y       z     vdW  Elec       q    Type
REMARK                         _______ _______ _______ _____ _____    ______ ____
ROOT
ATOM      1  C   UNL     1      51.662 156.658  29.783  0.00  0.00    +0.004 C 
ATOM      2  C   UNL     1      50.587 155.764  29.273  0.00  0.00    +0.022 C 
ATOM      3  C   UNL     1      50.928 154.957  28.075  0.00  0.00    +0.094 C 
ATOM      4  N   UNL     1      52.297 155.114  27.679  0.00  0.00    -0.272 N 
ATOM      5  C   UNL     1      52.781 156.458  27.538  0.00  0.00    +0.094 C 
ATOM      6  C   UNL     1      52.551 157.271  28.781  0.00  0.00    +0.022 C 
ATOM      7  C   UNL     1      53.112 154.008  27.446  0.00  0.00    +0.303 C 
ATOM      8  O   UNL     1      52.674 152.845  27.575  0.00  0.00    -0.265 OA
ENDROOT
TORSDOF 0
