REMARK  Name = =
REMARK  1 active torsions:
REMARK  status: ('A' for Active; 'I' for Inactive)
REMARK    1  A    between atoms: C_1  and  C_9
REMARK                            x       y       z     vdW  Elec       q    Type
REMARK                         _______ _______ _______ _____ _____    ______ ____
ROOT
ATOM      1  C   UNL     1      50.951 157.495  29.402  0.00  0.00    +0.036 C 
ATOM      2  C   UNL     1      50.226 156.219  29.598  0.00  0.00    -0.010 C 
ATOM      3  C   UNL     1      50.748 155.039  28.889  0.00  0.00    +0.063 C 
ATOM      4  N   UNL     1      51.891 155.237  28.068  0.00  0.00    -0.251 N 
ATOM      5  C   UNL     1      52.467 156.555  27.773  0.00  0.00    +0.099 C 
ATOM      6  C   UNL     1      52.428 157.294  29.118  0.00  0.00    +0.027 C 
ATOM      7  C   UNL     1      52.526 154.103  27.489  0.00  0.00    +0.307 C 
ATOM      8  O   UNL     1      53.553 154.217  26.744  0.00  0.00    -0.265 OA
ENDROOT
BRANCH   1   9
ATOM      9  C   UNL     1      50.704 158.459  30.527  0.00  0.00    +0.109 C 
ATOM     10  C   UNL     1      49.418 159.189  30.343  0.00  0.00    +0.132 C 
ATOM     11  S   UNL     1      48.293 159.120  31.796  0.00  0.00    -0.119 S 
ATOM     12  C   UNL     1      48.346 160.908  32.221  0.00  0.00    +0.081 C 
ATOM     13  C   UNL     1      49.078 161.455  31.011  0.00  0.00    +0.106 C 
ATOM     14  N   UNL     1      50.070 160.474  30.641  0.00  0.00    -0.271 N 
ATOM     15  C   UNL     1      51.311 159.805  30.335  0.00  0.00    +0.229 C 
ATOM     16  O   UNL     1      52.440 160.264  30.028  0.00  0.00    -0.275 OA
ENDBRANCH   1   9
TORSDOF 1
