REMARK  Name = =
REMARK  4 active torsions:
REMARK  status: ('A' for Active; 'I' for Inactive)
REMARK    1  A    between atoms: C_1  and  C_9
REMARK    2  A    between atoms: C_1  and  O_17
REMARK    3  A    between atoms: O_17  and  C_18
REMARK    4  A    between atoms: C_18  and  O_20
REMARK                            x       y       z     vdW  Elec       q    Type
REMARK                         _______ _______ _______ _____ _____    ______ ____
ROOT
ATOM      1  C   UNL     1      50.063 159.234  30.555  0.00  0.00    +0.233 C 
ATOM      2  C   UNL     1      49.294 159.128  31.880  0.00  0.00    +0.169 C 
ATOM      3  S   UNL     1      47.616 159.868  31.808  0.00  0.00    -0.115 S 
ATOM      4  C   UNL     1      47.921 161.234  33.008  0.00  0.00    +0.081 C 
ATOM      5  C   UNL     1      49.283 160.753  33.534  0.00  0.00    +0.106 C 
ATOM      6  N   UNL     1      50.014 160.278  32.386  0.00  0.00    -0.265 N 
ATOM      7  C   UNL     1      50.958 160.115  31.360  0.00  0.00    +0.265 C 
ATOM      8  O   UNL     1      52.117 160.535  31.163  0.00  0.00    -0.271 OA
ENDROOT
BRANCH   1   9
ATOM      9  C   UNL     1      50.738 157.944  30.289  0.00  0.00    +0.051 C 
ATOM     10  C   UNL     1      51.515 157.906  29.017  0.00  0.00    +0.026 C 
ATOM     11  C   UNL     1      52.385 156.627  29.143  0.00  0.00    +0.094 C 
ATOM     12  N   UNL     1      51.469 155.512  29.021  0.00  0.00    -0.272 N 
ATOM     13  C   UNL     1      50.051 155.801  29.146  0.00  0.00    +0.094 C 
ATOM     14  C   UNL     1      49.763 156.775  30.251  0.00  0.00    +0.026 C 
ATOM     15  C   UNL     1      51.954 154.215  28.794  0.00  0.00    +0.303 C 
ATOM     16  O   UNL     1      53.185 154.026  28.696  0.00  0.00    -0.265 OA
ENDBRANCH   1   9
BRANCH   1  17
ATOM     17  O   UNL     1      49.268 159.832  29.633  0.00  0.00    -0.414 OA
BRANCH  17  18
ATOM     18  C   UNL     1      49.229 161.002  28.986  0.00  0.00    +0.509 C 
ATOM     19  O   UNL     1      49.817 161.983  29.451  0.00  0.00    -0.203 OA
BRANCH  18  20
ATOM     20  O   UNL     1      48.505 161.049  27.787  0.00  0.00    -0.450 OA
ATOM     21  H   UNL     1      48.073 160.280  27.470  0.00  0.00    +0.299 HD
ENDBRANCH  18  20
ENDBRANCH  17  18
ENDBRANCH   1  17
TORSDOF 4
