REMARK  Name = =
REMARK  5 active torsions:
REMARK  status: ('A' for Active; 'I' for Inactive)
REMARK    1  A    between atoms: C_1  and  C_9
REMARK    2  A    between atoms: C_1  and  O_19
REMARK    3  A    between atoms: C_9  and  C_17
REMARK    4  A    between atoms: O_19  and  C_20
REMARK    5  A    between atoms: C_20  and  O_22
REMARK                            x       y       z     vdW  Elec       q    Type
REMARK                         _______ _______ _______ _____ _____    ______ ____
ROOT
ATOM      1  C   UNL     1      50.118 158.771  29.979  0.00  0.00    +0.236 C 
ATOM      2  C   UNL     1      50.285 157.355  30.549  0.00  0.00    +0.170 C 
ATOM      3  S   UNL     1      49.160 156.149  29.765  0.00  0.00    -0.115 S 
ATOM      4  C   UNL     1      50.406 155.326  28.693  0.00  0.00    +0.081 C 
ATOM      5  C   UNL     1      51.657 155.760  29.456  0.00  0.00    +0.106 C 
ATOM      6  N   UNL     1      51.449 157.178  29.647  0.00  0.00    -0.265 N 
ATOM      7  C   UNL     1      51.559 158.592  29.591  0.00  0.00    +0.266 C 
ATOM      8  O   UNL     1      52.486 159.389  29.323  0.00  0.00    -0.271 OA
ENDROOT
BRANCH   1   9
ATOM      9  C   UNL     1      49.921 159.743  31.114  0.00  0.00    +0.073 C 
ATOM     10  C   UNL     1      49.591 161.121  30.662  0.00  0.00    +0.030 C 
ATOM     11  C   UNL     1      50.722 161.982  30.235  0.00  0.00    +0.094 C 
ATOM     12  N   UNL     1      51.808 161.886  31.161  0.00  0.00    -0.272 N 
ATOM     13  C   UNL     1      51.572 161.121  32.389  0.00  0.00    +0.094 C 
ATOM     14  C   UNL     1      51.144 159.726  31.997  0.00  0.00    +0.030 C 
ATOM     15  C   UNL     1      53.065 162.486  30.937  0.00  0.00    +0.303 C 
ATOM     16  O   UNL     1      54.002 162.398  31.745  0.00  0.00    -0.265 OA
BRANCH   9  17
ATOM     17  C   UNL     1      48.790 159.282  31.962  0.00  0.00    +0.019 C 
ATOM     18  S   UNL     1      47.817 160.221  32.405  0.00  0.00    -0.055 S 
ENDBRANCH   9  17
ENDBRANCH   1   9
BRANCH   1  19
ATOM     19  O   UNL     1      49.367 158.905  28.835  0.00  0.00    -0.414 OA
BRANCH  19  20
ATOM     20  C   UNL     1      48.019 158.855  28.655  0.00  0.00    +0.509 C 
ATOM     21  O   UNL     1      47.343 158.203  29.486  0.00  0.00    -0.203 OA
BRANCH  20  22
ATOM     22  O   UNL     1      47.331 159.470  27.621  0.00  0.00    -0.450 OA
ATOM     23  H   UNL     1      46.399 159.389  27.565  0.00  0.00    +0.299 HD
ENDBRANCH  20  22
ENDBRANCH  19  20
ENDBRANCH   1  19
TORSDOF 5
