REMARK  Name = =
REMARK  6 active torsions:
REMARK  status: ('A' for Active; 'I' for Inactive)
REMARK    1  A    between atoms: C_1  and  C_9
REMARK    2  A    between atoms: C_1  and  C_21
REMARK    3  A    between atoms: C_9  and  O_17
REMARK    4  A    between atoms: O_17  and  C_18
REMARK    5  A    between atoms: C_18  and  O_20
REMARK    6  A    between atoms: C_21  and  S_23
REMARK                            x       y       z     vdW  Elec       q    Type
REMARK                         _______ _______ _______ _____ _____    ______ ____
ROOT
ATOM      1  C   UNL     1      50.333 158.971  30.459  0.00  0.00    +0.084 C 
ATOM      2  C   UNL     1      50.472 158.740  28.943  0.00  0.00    +0.031 C 
ATOM      3  C   UNL     1      50.333 157.233  28.728  0.00  0.00    +0.094 C 
ATOM      4  N   UNL     1      51.587 156.674  29.150  0.00  0.00    -0.272 N 
ATOM      5  C   UNL     1      52.235 157.298  30.273  0.00  0.00    +0.094 C 
ATOM      6  C   UNL     1      51.156 157.879  31.140  0.00  0.00    +0.031 C 
ATOM      7  C   UNL     1      52.149 155.575  28.504  0.00  0.00    +0.303 C 
ATOM      8  O   UNL     1      51.553 155.056  27.526  0.00  0.00    -0.265 OA
ENDROOT
BRANCH   1   9
ATOM      9  C   UNL     1      50.955 160.287  30.773  0.00  0.00    +0.209 C 
ATOM     10  C   UNL     1      52.259 160.551  29.994  0.00  0.00    +0.168 C 
ATOM     11  S   UNL     1      53.605 160.696  31.238  0.00  0.00    -0.118 S 
ATOM     12  C   UNL     1      53.611 162.531  31.368  0.00  0.00    +0.076 C 
ATOM     13  C   UNL     1      52.891 162.852  30.049  0.00  0.00    +0.087 C 
ATOM     14  N   UNL     1      51.799 161.924  29.943  0.00  0.00    -0.234 NA
ATOM     15  C   UNL     1      50.489 161.381  29.811  0.00  0.00    +0.235 C 
ATOM     16  O   UNL     1      49.471 161.698  29.184  0.00  0.00    -0.203 OA
BRANCH   9  17
ATOM     17  O   UNL     1      50.932 160.825  32.046  0.00  0.00    -0.419 OA
BRANCH  17  18
ATOM     18  C   UNL     1      50.010 161.681  32.587  0.00  0.00    +0.509 C 
ATOM     19  O   UNL     1      49.095 162.160  31.882  0.00  0.00    -0.203 OA
BRANCH  18  20
ATOM     20  O   UNL     1      50.064 162.048  33.953  0.00  0.00    -0.450 OA
ATOM     21  H   UNL     1      49.425 162.635  34.306  0.00  0.00    +0.299 HD
ENDBRANCH  18  20
ENDBRANCH  17  18
ENDBRANCH   9  17
ENDBRANCH   1   9
BRANCH   1  22
ATOM     22  C   UNL     1      48.905 158.800  30.751  0.00  0.00    +0.118 C 
ATOM     23  S   UNL     1      47.940 158.569  29.687  0.00  0.00    -0.036 S 
BRANCH  22  24
ATOM     24  S   UNL     1      48.218 158.816  32.377  0.00  0.00    -0.010 S 
ATOM     25  O   UNL     1      47.065 159.762  32.439  0.00  0.00    -0.172 OA
ATOM     26  O   UNL     1      49.220 159.166  33.420  0.00  0.00    -0.172 OA
ATOM     27  H   UNL     1      47.791 157.552  32.640  0.00  0.00    +0.216 HD
ENDBRANCH  22  24
ENDBRANCH   1  22
TORSDOF 6
