REMARK  Name = =
REMARK  10 active torsions:
REMARK  status: ('A' for Active; 'I' for Inactive)
REMARK    1  A    between atoms: C_1  and  C_3
REMARK    2  A    between atoms: C_1  and  S_23
REMARK    3  A    between atoms: C_3  and  C_11
REMARK    4  A    between atoms: C_11  and  O_19
REMARK    5  A    between atoms: O_19  and  C_20
REMARK    6  A    between atoms: C_20  and  O_22
REMARK    7  A    between atoms: S_23  and  N_26
REMARK    8  A    between atoms: N_26  and  C_29
REMARK    9  A    between atoms: C_31  and  O_37
REMARK   10  A    between atoms: C_32  and  C_34
REMARK                            x       y       z     vdW  Elec       q    Type
REMARK                         _______ _______ _______ _____ _____    ______ ____
ROOT
ATOM      1  C   UNL     1      50.047 157.720  30.015  0.00  0.00    +0.141 C 
ATOM      2  S   UNL     1      48.642 157.457  29.923  0.00  0.00    -0.034 S 
ENDROOT
BRANCH   1   3
ATOM      3  C   UNL     1      50.479 159.116  30.300  0.00  0.00    +0.086 C 
ATOM      4  C   UNL     1      51.261 159.691  29.172  0.00  0.00    +0.031 C 
ATOM      5  C   UNL     1      52.559 160.334  29.494  0.00  0.00    +0.094 C 
ATOM      6  N   UNL     1      52.609 160.921  30.795  0.00  0.00    -0.272 N 
ATOM      7  C   UNL     1      52.208 160.119  31.919  0.00  0.00    +0.094 C 
ATOM      8  C   UNL     1      51.304 159.016  31.561  0.00  0.00    +0.031 C 
ATOM      9  C   UNL     1      53.043 162.242  30.983  0.00  0.00    +0.303 C 
ATOM     10  O   UNL     1      53.395 162.913  29.978  0.00  0.00    -0.265 OA
BRANCH   3  11
ATOM     11  C   UNL     1      49.229 159.958  30.595  0.00  0.00    +0.209 C 
ATOM     12  C   UNL     1      49.718 161.204  31.468  0.00  0.00    +0.168 C 
ATOM     13  S   UNL     1      49.128 161.113  33.187  0.00  0.00    -0.118 S 
ATOM     14  C   UNL     1      48.154 162.642  33.049  0.00  0.00    +0.076 C 
ATOM     15  C   UNL     1      47.755 162.632  31.637  0.00  0.00    +0.087 C 
ATOM     16  N   UNL     1      48.519 161.802  30.827  0.00  0.00    -0.234 NA
ATOM     17  C   UNL     1      48.957 161.076  29.698  0.00  0.00    +0.235 C 
ATOM     18  O   UNL     1      49.036 161.386  28.453  0.00  0.00    -0.203 OA
BRANCH  11  19
ATOM     19  O   UNL     1      48.192 159.411  31.263  0.00  0.00    -0.419 OA
BRANCH  19  20
ATOM     20  C   UNL     1      46.884 159.555  31.384  0.00  0.00    +0.509 C 
ATOM     21  O   UNL     1      46.130 159.822  30.425  0.00  0.00    -0.203 OA
BRANCH  20  22
ATOM     22  O   UNL     1      46.190 159.420  32.619  0.00  0.00    -0.450 OA
ATOM     23  H   UNL     1      45.260 159.533  32.649  0.00  0.00    +0.299 HD
ENDBRANCH  20  22
ENDBRANCH  19  20
ENDBRANCH  11  19
ENDBRANCH   3  11
ENDBRANCH   1   3
BRANCH   1  24
ATOM     24  S   UNL     1      51.124 156.388  29.670  0.00  0.00    +0.076 S 
ATOM     25  O   UNL     1      52.565 156.902  29.647  0.00  0.00    -0.150 OA
ATOM     26  O   UNL     1      50.977 155.338  30.710  0.00  0.00    -0.150 OA
BRANCH  24  27
ATOM     27  N   UNL     1      50.846 155.716  28.126  0.00  0.00    -0.214 N 
ATOM     28  H   UNL     1      50.041 156.019  27.648  0.00  0.00    +0.174 HD
BRANCH  27  31
ATOM     29 CL   UNL     1      52.981 156.912  26.535  0.00  0.00    -0.081 Cl
ATOM     30  C   UNL     1      52.731 155.186  26.657  0.00  0.00    +0.073 C 
ATOM     31  C   UNL     1      51.666 154.761  27.464  0.00  0.00    +0.078 C 
ATOM     32  C   UNL     1      51.484 153.411  27.542  0.00  0.00    +0.053 C 
ATOM     33  C   UNL     1      52.301 152.497  26.865  0.00  0.00    +0.139 C 
ATOM     34  C   UNL     1      53.337 152.962  26.083  0.00  0.00    +0.088 C 
ATOM     35  C   UNL     1      53.553 154.320  25.979  0.00  0.00    +0.020 C 
BRANCH  34  36
ATOM     36  C   UNL     1      54.179 152.019  25.386  0.00  0.00    +0.246 C 
ATOM     37  O   UNL     1      53.669 151.023  24.825  0.00  0.00    -0.270 OA
ATOM     38  N   UNL     1      55.593 152.261  25.358  0.00  0.00    -0.325 N 
ATOM     39  H   UNL     1      55.966 153.053  25.808  0.00  0.00    +0.145 HD
ATOM     40  H   UNL     1      56.190 151.635  24.888  0.00  0.00    +0.145 HD
ENDBRANCH  34  36
BRANCH  33  41
ATOM     41  O   UNL     1      52.055 151.122  26.992  0.00  0.00    -0.505 OA
ATOM     42  H   UNL     1      51.347 150.820  27.527  0.00  0.00    +0.292 HD
ENDBRANCH  33  41
ENDBRANCH  27  31
ENDBRANCH  24  27
ENDBRANCH   1  24
TORSDOF 10
