REMARK  Name = =
REMARK  1 active torsions:
REMARK  status: ('A' for Active; 'I' for Inactive)
REMARK    1  A    between atoms: C_1  and  N_8
REMARK                            x       y       z     vdW  Elec       q    Type
REMARK                         _______ _______ _______ _____ _____    ______ ____
ROOT
ATOM      1  C   UNL     1      -3.549  -4.472  30.716  0.00  0.00    +0.053 C 
ATOM      2  C   UNL     1      -2.522  -5.524  30.577  0.00  0.00    +0.018 C 
ATOM      3  C   UNL     1      -1.494  -5.310  29.519  0.00  0.00    +0.033 C 
ATOM      4  C   UNL     1      -0.518  -4.220  29.847  0.00  0.00    +0.142 C 
ATOM      5  O   UNL     1      -0.912  -2.967  29.488  0.00  0.00    -0.354 OA
ATOM      6  C   UNL     1      -2.271  -2.791  29.346  0.00  0.00    +0.144 C 
ATOM      7  C   UNL     1      -3.071  -3.069  30.562  0.00  0.00    +0.048 C 
ENDROOT
BRANCH   1   8
ATOM      8  N   UNL     1      -4.746  -4.741  29.907  0.00  0.00    -0.322 NA
ATOM      9  H   UNL     1      -5.037  -5.709  30.042  0.00  0.00    +0.119 HD
ATOM     10  H   UNL     1      -4.533  -4.585  28.922  0.00  0.00    +0.119 HD
ENDBRANCH   1   8
TORSDOF 1
