REMARK  Name = =
REMARK  7 active torsions:
REMARK  status: ('A' for Active; 'I' for Inactive)
REMARK    1  A    between atoms: C_1  and  C_8
REMARK    2  A    between atoms: C_1  and  O_10
REMARK    3  A    between atoms: C_2  and  N_9
REMARK    4  A    between atoms: O_10  and  C_11
REMARK    5  A    between atoms: C_11  and  C_12
REMARK    6  A    between atoms: C_12  and  N_13
REMARK    7  A    between atoms: C_15  and  N_18
REMARK                            x       y       z     vdW  Elec       q    Type
REMARK                         _______ _______ _______ _____ _____    ______ ____
ROOT
ATOM      1  C   UNL     1      -3.286  -3.344  30.427  0.00  0.00    +0.146 C 
ENDROOT
BRANCH   1   8
ATOM      2  C   UNL     1      -1.207  -3.629  29.177  0.00  0.00    +0.056 C 
ATOM      3  C   UNL     1      -0.345  -3.272  28.004  0.00  0.00    +0.018 C 
ATOM      4  C   UNL     1      -1.136  -2.795  26.813  0.00  0.00    +0.033 C 
ATOM      5  C   UNL     1      -1.750  -1.450  27.063  0.00  0.00    +0.142 C 
ATOM      6  O   UNL     1      -1.395  -1.016  28.349  0.00  0.00    -0.354 OA
ATOM      7  C   UNL     1      -2.396  -1.462  29.204  0.00  0.00    +0.146 C 
ATOM      8  C   UNL     1      -2.564  -2.967  29.136  0.00  0.00    +0.073 C 
BRANCH   2   9
ATOM      9  N   UNL     1      -0.529  -3.113  30.366  0.00  0.00    -0.322 NA
ATOM     10  H   UNL     1       0.398  -3.533  30.438  0.00  0.00    +0.119 HD
ATOM     11  H   UNL     1      -1.074  -3.346  31.196  0.00  0.00    +0.119 HD
ENDBRANCH   2   9
ENDBRANCH   1   8
BRANCH   1  12
ATOM     12  O   UNL     1      -4.216  -4.315  30.257  0.00  0.00    -0.352 OA
BRANCH  12  13
ATOM     13  C   UNL     1      -3.957  -5.412  31.044  0.00  0.00    +0.166 C 
BRANCH  13  14
ATOM     14  C   UNL     1      -2.879  -6.287  30.490  0.00  0.00    +0.148 C 
BRANCH  14  15
ATOM     15  N   UNL     1      -2.123  -6.925  31.558  0.00  0.00    -0.206 N 
ATOM     16  C   UNL     1      -0.802  -6.801  31.737  0.00  0.00    +0.100 C 
ATOM     17  C   UNL     1      -0.398  -7.534  32.841  0.00  0.00    +0.079 C 
ATOM     18  C   UNL     1      -1.563  -8.113  33.319  0.00  0.00    +0.133 C 
ATOM     19  N   UNL     1      -2.583  -7.714  32.508  0.00  0.00    -0.175 NA
BRANCH  17  20
ATOM     20  N   UNL     1       0.920  -7.643  33.336  0.00  0.00    -0.355 N 
ATOM     21  H   UNL     1       1.656  -7.168  32.886  0.00  0.00    +0.142 HD
ATOM     22  H   UNL     1       1.103  -8.194  34.131  0.00  0.00    +0.142 HD
ENDBRANCH  17  20
ENDBRANCH  14  15
ENDBRANCH  13  14
ENDBRANCH  12  13
ENDBRANCH   1  12
TORSDOF 7
