REMARK  Name = =
REMARK  11 active torsions:
REMARK  status: ('A' for Active; 'I' for Inactive)
REMARK    1  A    between atoms: C_1  and  C_8
REMARK    2  A    between atoms: C_1  and  C_10
REMARK    3  A    between atoms: C_1  and  O_20
REMARK    4  A    between atoms: C_2  and  N_9
REMARK    5  A    between atoms: C_10  and  C_11
REMARK    6  A    between atoms: C_11  and  C_12
REMARK    7  A    between atoms: C_11  and  O_19
REMARK    8  A    between atoms: O_20  and  C_21
REMARK    9  A    between atoms: C_21  and  C_22
REMARK   10  A    between atoms: C_22  and  N_23
REMARK   11  A    between atoms: C_25  and  N_28
REMARK                            x       y       z     vdW  Elec       q    Type
REMARK                         _______ _______ _______ _____ _____    ______ ____
ROOT
ATOM      1  C   UNL     1      -1.902  -3.624  28.531  0.00  0.00    +0.122 C 
ENDROOT
BRANCH   1   8
ATOM      2  C   UNL     1       0.587  -3.275  29.060  0.00  0.00    +0.056 C 
ATOM      3  C   UNL     1       1.703  -4.235  29.527  0.00  0.00    +0.018 C 
ATOM      4  C   UNL     1       2.029  -5.290  28.525  0.00  0.00    +0.033 C 
ATOM      5  C   UNL     1       1.139  -6.495  28.875  0.00  0.00    +0.142 C 
ATOM      6  O   UNL     1      -0.147  -6.042  28.673  0.00  0.00    -0.354 OA
ATOM      7  C   UNL     1      -0.641  -5.316  29.719  0.00  0.00    +0.146 C 
ATOM      8  C   UNL     1      -0.753  -3.808  29.416  0.00  0.00    +0.071 C 
BRANCH   2   9
ATOM      9  N   UNL     1       0.909  -2.061  29.838  0.00  0.00    -0.322 NA
ATOM     10  H   UNL     1       0.233  -1.329  29.620  0.00  0.00    +0.119 HD
ATOM     11  H   UNL     1       1.847  -1.741  29.596  0.00  0.00    +0.119 HD
ENDBRANCH   2   9
ENDBRANCH   1   8
BRANCH   1  12
ATOM     12  C   UNL     1      -1.739  -2.774  27.285  0.00  0.00    +0.064 C 
BRANCH  12  13
ATOM     13  C   UNL     1      -0.381  -2.624  26.730  0.00  0.00    +0.142 C 
BRANCH  13  14
ATOM     14  C   UNL     1      -0.443  -2.027  25.350  0.00  0.00    +0.048 A 
ATOM     15  S   UNL     1      -1.936  -1.790  24.410  0.00  0.00    -0.073 S 
ATOM     16  C   UNL     1      -0.986  -1.033  22.935  0.00  0.00    +0.088 A 
ATOM     17  C   UNL     1      -1.794  -0.606  21.741  0.00  0.00    +0.059 C 
ATOM     18  N   UNL     1       0.084  -1.094  23.358  0.00  0.00    -0.247 NA
ATOM     19  C   UNL     1       0.508  -1.555  24.524  0.00  0.00    +0.064 A 
ATOM     20  C   UNL     1       1.978  -1.540  24.878  0.00  0.00    +0.052 C 
ENDBRANCH  13  14
BRANCH  13  21
ATOM     21  O   UNL     1       0.115  -3.930  26.482  0.00  0.00    -0.379 OA
ATOM     22  H   UNL     1       0.195  -4.410  27.321  0.00  0.00    +0.211 HD
ENDBRANCH  13  21
ENDBRANCH  12  13
ENDBRANCH   1  12
BRANCH   1  23
ATOM     23  O   UNL     1      -3.023  -3.151  29.217  0.00  0.00    -0.354 OA
BRANCH  23  24
ATOM     24  C   UNL     1      -3.737  -3.987  29.975  0.00  0.00    +0.166 C 
BRANCH  24  25
ATOM     25  C   UNL     1      -3.395  -4.089  31.426  0.00  0.00    +0.148 C 
BRANCH  25  26
ATOM     26  N   UNL     1      -3.476  -5.468  31.900  0.00  0.00    -0.206 N 
ATOM     27  C   UNL     1      -2.542  -6.389  31.699  0.00  0.00    +0.100 C 
ATOM     28  C   UNL     1      -2.960  -7.572  32.290  0.00  0.00    +0.079 C 
ATOM     29  C   UNL     1      -4.184  -7.305  32.847  0.00  0.00    +0.133 C 
ATOM     30  N   UNL     1      -4.451  -6.013  32.582  0.00  0.00    -0.175 NA
BRANCH  28  31
ATOM     31  N   UNL     1      -2.264  -8.813  32.315  0.00  0.00    -0.355 N 
ATOM     32  H   UNL     1      -1.385  -8.893  31.880  0.00  0.00    +0.142 HD
ATOM     33  H   UNL     1      -2.662  -9.592  32.768  0.00  0.00    +0.142 HD
ENDBRANCH  28  31
ENDBRANCH  25  26
ENDBRANCH  24  25
ENDBRANCH  23  24
ENDBRANCH   1  23
TORSDOF 11
