REMARK  Name = =
REMARK  16 active torsions:
REMARK  status: ('A' for Active; 'I' for Inactive)
REMARK    1  A    between atoms: O_1  and  C_2
REMARK    2  A    between atoms: O_1  and  C_20
REMARK    3  A    between atoms: C_2  and  C_3
REMARK    4  A    between atoms: C_3  and  N_4
REMARK    5  A    between atoms: C_5  and  C_10
REMARK    6  A    between atoms: C_6  and  N_9
REMARK    7  A    between atoms: C_10  and  C_11
REMARK    8  A    between atoms: N_14  and  C_17
REMARK    9  A    between atoms: C_17  and  C_18
REMARK   10  A    between atoms: C_18  and  N_19
REMARK   11  A    between atoms: C_20  and  C_27
REMARK   12  A    between atoms: C_20  and  C_29
REMARK   13  A    between atoms: C_21  and  N_28
REMARK   14  A    between atoms: C_29  and  C_30
REMARK   15  A    between atoms: C_30  and  C_31
REMARK   16  A    between atoms: C_30  and  O_38
REMARK                            x       y       z     vdW  Elec       q    Type
REMARK                         _______ _______ _______ _____ _____    ______ ____
ROOT
ATOM      1  O   UNL     1      -1.441  -3.680  30.498  0.00  0.00    -0.354 OA
ENDROOT
BRANCH   1   2
ATOM      2  C   UNL     1      -1.694  -4.986  30.312  0.00  0.00    +0.122 C 
BRANCH   2   9
ATOM      3  C   UNL     1      -3.790  -4.875  31.675  0.00  0.00    +0.056 C 
ATOM      4  C   UNL     1      -4.511  -5.652  32.753  0.00  0.00    +0.018 C 
ATOM      5  C   UNL     1      -3.598  -6.125  33.845  0.00  0.00    +0.033 C 
ATOM      6  C   UNL     1      -2.905  -7.380  33.358  0.00  0.00    +0.142 C 
ATOM      7  O   UNL     1      -3.370  -7.746  32.107  0.00  0.00    -0.354 OA
ATOM      8  C   UNL     1      -2.744  -7.054  31.074  0.00  0.00    +0.146 C 
ATOM      9  C   UNL     1      -2.491  -5.603  31.384  0.00  0.00    +0.071 C 
BRANCH   3  10
ATOM     10  N   UNL     1      -4.664  -4.776  30.548  0.00  0.00    -0.322 NA
ATOM     11  H   UNL     1      -5.512  -4.277  30.818  0.00  0.00    +0.119 HD
ATOM     12  H   UNL     1      -4.909  -5.712  30.224  0.00  0.00    +0.119 HD
ENDBRANCH   3  10
ENDBRANCH   2   9
BRANCH   2  13
ATOM     13  C   UNL     1      -0.373  -5.774  30.082  0.00  0.00    +0.064 C 
BRANCH  13  14
ATOM     14  C   UNL     1      -0.600  -6.807  29.007  0.00  0.00    +0.142 C 
BRANCH  14  15
ATOM     15  C   UNL     1       0.675  -7.338  28.494  0.00  0.00    +0.048 A 
ATOM     16  S   UNL     1       2.352  -6.968  29.163  0.00  0.00    -0.073 S 
ATOM     17  C   UNL     1       3.159  -8.102  27.836  0.00  0.00    +0.088 A 
ATOM     18  C   UNL     1       4.680  -8.186  27.915  0.00  0.00    +0.059 C 
ATOM     19  N   UNL     1       2.225  -8.452  27.284  0.00  0.00    -0.247 NA
ATOM     20  C   UNL     1       0.950  -8.213  27.428  0.00  0.00    +0.064 A 
ATOM     21  C   UNL     1      -0.165  -8.782  26.578  0.00  0.00    +0.052 C 
ENDBRANCH  14  15
BRANCH  14  22
ATOM     22  O   UNL     1      -1.316  -6.168  27.958  0.00  0.00    -0.379 OA
ATOM     23  H   UNL     1      -2.154  -5.821  28.303  0.00  0.00    +0.211 HD
ENDBRANCH  14  22
ENDBRANCH  13  14
ENDBRANCH   2  13
ENDBRANCH   1   2
BRANCH   1  24
ATOM     24  C   UNL     1      -1.514  -2.730  29.595  0.00  0.00    +0.166 C 
BRANCH  24  25
ATOM     25  C   UNL     1      -0.396  -1.919  29.067  0.00  0.00    +0.148 C 
BRANCH  25  26
ATOM     26  N   UNL     1      -0.237  -1.779  27.660  0.00  0.00    -0.212 N 
ATOM     27  C   UNL     1       0.880  -1.389  26.977  0.00  0.00    +0.061 C 
ATOM     28  C   UNL     1       0.605  -1.416  25.636  0.00  0.00    +0.074 C 
ATOM     29  C   UNL     1      -0.724  -1.841  25.520  0.00  0.00    +0.133 C 
ATOM     30  N   UNL     1      -1.131  -2.028  26.753  0.00  0.00    -0.175 NA
BRANCH  28  31
ATOM     31  N   UNL     1       1.436  -1.075  24.508  0.00  0.00    -0.355 N 
ATOM     32  H   UNL     1       2.365  -0.782  24.652  0.00  0.00    +0.142 HD
ATOM     33  H   UNL     1       1.075  -1.135  23.594  0.00  0.00    +0.142 HD
ENDBRANCH  28  31
BRANCH  27  34
ATOM     34  C   UNL     1       2.164  -1.005  27.580  0.00  0.00    +0.044 C 
BRANCH  34  35
ATOM     35  C   UNL     1       3.260  -2.014  27.524  0.00  0.00    +0.009 C 
ATOM     36  C   UNL     1       4.296  -1.740  26.473  0.00  0.00    +0.018 C 
ATOM     37  C   UNL     1       5.463  -2.728  26.726  0.00  0.00    +0.072 C 
ATOM     38  N   UNL     1       4.991  -4.033  26.474  0.00  0.00    -0.272 NA
ATOM     39  C   UNL     1       3.944  -4.347  27.444  0.00  0.00    +0.072 C 
ATOM     40  C   UNL     1       2.767  -3.430  27.363  0.00  0.00    +0.018 C 
BRANCH  38  41
ATOM     41  C   UNL     1       5.972  -5.051  26.569  0.00  0.00    +0.089 C 
BRANCH  41  42
ATOM     42  C   UNL     1       6.292  -5.708  25.276  0.00  0.00    +0.083 C 
BRANCH  42  43
ATOM     43  N   UNL     1       7.494  -5.283  24.625  0.00  0.00    -0.320 NA
ATOM     44  H   UNL     1       7.609  -5.799  23.753  0.00  0.00    +0.119 HD
ATOM     45  H   UNL     1       8.292  -5.462  25.234  0.00  0.00    +0.119 HD
ENDBRANCH  42  43
ENDBRANCH  41  42
ENDBRANCH  38  41
ENDBRANCH  34  35
ENDBRANCH  27  34
ENDBRANCH  25  26
ENDBRANCH  24  25
ENDBRANCH   1  24
TORSDOF 16
