REMARK  Name = =
REMARK  4 active torsions:
REMARK  status: ('A' for Active; 'I' for Inactive)
REMARK    1  A    between atoms: C_1  and  N_17
REMARK    2  A    between atoms: C_1  and  C_23
REMARK    3  A    between atoms: N_20  and  N_21
REMARK    4  A    between atoms: C_23  and  C_25
REMARK                            x       y       z     vdW  Elec       q    Type
REMARK                         _______ _______ _______ _____ _____    ______ ____
ROOT
ATOM      1  C   UNL     1      49.702 161.035  32.103  0.00  0.00    +0.133 C 
ATOM      2  C   UNL     1      51.108 161.504  31.732  0.00  0.00    +0.114 C 
ATOM      3  N   UNL     1      51.165 161.454  30.279  0.00  0.00    -0.217 NA
ATOM      4  C   UNL     1      51.054 160.123  29.783  0.00  0.00    +0.081 C 
ATOM      5  C   UNL     1      49.916 159.330  30.342  0.00  0.00    +0.037 C 
ATOM      6  C   UNL     1      49.682 159.555  31.811  0.00  0.00    +0.033 C 
ATOM      7  C   UNL     1      50.009 157.920  29.995  0.00  0.00    -0.038 C 
ATOM      8  C   UNL     1      48.880 157.091  30.026  0.00  0.00    +0.048 C 
ATOM      9  C   UNL     1      49.014 155.758  29.690  0.00  0.00    -0.020 C 
ATOM     10  C   UNL     1      50.228 155.217  29.324  0.00  0.00    +0.015 C 
ATOM     11  C   UNL     1      51.354 156.029  29.290  0.00  0.00    +0.080 C 
ATOM     12  N   UNL     1      52.593 155.826  28.998  0.00  0.00    -0.244 NA
ATOM     13  C   UNL     1      53.366 157.047  29.129  0.00  0.00    +0.095 C 
ATOM     14  C   UNL     1      52.327 158.005  29.557  0.00  0.00    -0.001 C 
ATOM     15  C   UNL     1      51.189 157.354  29.631  0.00  0.00    +0.008 C 
ATOM     16  C   UNL     1      52.382 159.428  29.876  0.00  0.00    +0.046 C 
ENDROOT
BRANCH   1  17
ATOM     17  N   UNL     1      48.785 161.691  31.199  0.00  0.00    -0.283 N 
ATOM     18  C   UNL     1      47.524 161.160  30.815  0.00  0.00    +0.317 C 
ATOM     19  O   UNL     1      47.183 160.053  31.292  0.00  0.00    -0.251 OA
ATOM     20  N   UNL     1      46.670 161.874  29.911  0.00  0.00    -0.189 N 
ATOM     21  H   UNL     1      49.051 162.562  30.825  0.00  0.00    +0.151 HD
ATOM     22  H   UNL     1      46.955 162.743  29.548  0.00  0.00    +0.175 HD
BRANCH  20  23
ATOM     23  N   UNL     1      45.431 161.335  29.545  0.00  0.00    +0.051 NA
ATOM     24  O   UNL     1      44.910 160.521  30.334  0.00  0.00    -0.079 OA
ENDBRANCH  20  23
ENDBRANCH   1  17
BRANCH   1  25
ATOM     25  C   UNL     1      49.389 161.335  33.511  0.00  0.00    +0.232 C 
ATOM     26  O   UNL     1      48.820 162.427  33.768  0.00  0.00    -0.286 OA
BRANCH  25  27
ATOM     27  C   UNL     1      49.739 160.383  34.549  0.00  0.00    +0.273 C 
ATOM     28  O   UNL     1      50.140 159.224  34.316  0.00  0.00    -0.280 OA
ENDBRANCH  25  27
ENDBRANCH   1  25
TORSDOF 4
