REMARK  Name = =
REMARK  7 active torsions:
REMARK  status: ('A' for Active; 'I' for Inactive)
REMARK    1  A    between atoms: P_2  and  O_3
REMARK    2  A    between atoms: P_2  and  C_10
REMARK    3  A    between atoms: P_2  and  O_12
REMARK    4  A    between atoms: P_2  and  O_13
REMARK    5  A    between atoms: N_16  and  C_17
REMARK    6  A    between atoms: C_17  and  N_24
REMARK    7  A    between atoms: N_24  and  C_25
REMARK                            x       y       z     vdW  Elec       q    Type
REMARK                         _______ _______ _______ _____ _____    ______ ____
ROOT
ATOM      1  O   HOH     1      51.406 156.374  29.758  0.00  0.00    +0.000 OA
ENDROOT
TORSDOF 0
REMARK  Name = =
REMARK  7 active torsions:
REMARK  status: ('A' for Active; 'I' for Inactive)
REMARK    1  A    between atoms: P_2  and  O_3
REMARK    2  A    between atoms: P_2  and  C_10
REMARK    3  A    between atoms: P_2  and  O_12
REMARK    4  A    between atoms: P_2  and  O_13
REMARK    5  A    between atoms: N_16  and  C_17
REMARK    6  A    between atoms: C_17  and  N_24
REMARK    7  A    between atoms: N_24  and  C_25
REMARK                            x       y       z     vdW  Elec       q    Type
REMARK                         _______ _______ _______ _____ _____    ______ ____
ROOT
ATOM      1  N   UNL     1      53.286 154.723  26.492  0.00  0.00    -0.271 N 
ATOM      2  C   UNL     1      53.245 153.296  26.745  0.00  0.00    +0.094 C 
ATOM      3  C   UNL     1      54.227 152.661  25.783  0.00  0.00    +0.022 C 
ATOM      4  C   UNL     1      53.808 152.881  24.344  0.00  0.00    +0.004 C 
ATOM      5  C   UNL     1      53.476 154.322  24.070  0.00  0.00    +0.022 C 
ATOM      6  C   UNL     1      53.898 155.167  25.261  0.00  0.00    +0.094 C 
ATOM      7  C   UNL     1      52.750 155.651  27.408  0.00  0.00    +0.313 C 
ATOM      8  O   UNL     1      52.811 156.871  27.144  0.00  0.00    -0.263 OA
ENDROOT
BRANCH   7   9
ATOM      9  P   UNL     1      52.011 155.065  28.900  0.00  0.00    +0.316 P 
BRANCH   9  10
ATOM     10  O   UNL     1      52.858 156.134  29.550  0.00  0.00    -0.329 OA
ATOM     11  H   UNL     1      53.675 155.737  29.889  0.00  0.00    +0.219 HD
ENDBRANCH   9  10
BRANCH   9  12
ATOM     12  O   UNL     1      52.463 153.466  29.138  0.00  0.00    -0.329 OA
ATOM     13  H   UNL     1      53.297 153.436  29.632  0.00  0.00    +0.219 HD
ENDBRANCH   9  12
BRANCH   9  14
ATOM     14  O   UNL     1      50.641 154.463  28.076  0.00  0.00    -0.329 OA
ATOM     15  H   UNL     1      50.031 154.060  28.714  0.00  0.00    +0.219 HD
ENDBRANCH   9  14
ENDBRANCH   7   9
TORSDOF 4
REMARK  Name = =
REMARK  7 active torsions:
REMARK  status: ('A' for Active; 'I' for Inactive)
REMARK    1  A    between atoms: P_2  and  O_3
REMARK    2  A    between atoms: P_2  and  C_10
REMARK    3  A    between atoms: P_2  and  O_12
REMARK    4  A    between atoms: P_2  and  O_13
REMARK    5  A    between atoms: N_16  and  C_17
REMARK    6  A    between atoms: C_17  and  N_24
REMARK    7  A    between atoms: N_24  and  C_25
REMARK                            x       y       z     vdW  Elec       q    Type
REMARK                         _______ _______ _______ _____ _____    ______ ____
ROOT
ATOM      1  S   UNL     1      49.723 156.528  29.568  0.00  0.00    +0.000 S 
ENDROOT
TORSDOF 0
REMARK  Name = =
REMARK  7 active torsions:
REMARK  status: ('A' for Active; 'I' for Inactive)
REMARK    1  A    between atoms: P_2  and  O_3
REMARK    2  A    between atoms: P_2  and  C_10
REMARK    3  A    between atoms: P_2  and  O_12
REMARK    4  A    between atoms: P_2  and  O_13
REMARK    5  A    between atoms: N_16  and  C_17
REMARK    6  A    between atoms: C_17  and  N_24
REMARK    7  A    between atoms: N_24  and  C_25
REMARK                            x       y       z     vdW  Elec       q    Type
REMARK                         _______ _______ _______ _____ _____    ______ ____
ROOT
ATOM      1  I   UNL     1      48.987 158.839  29.853  0.00  0.00    -0.107 I 
ATOM      2  H   UNL     1      50.548 158.839  29.853  0.00  0.00    +0.107 HD
ENDROOT
TORSDOF 0
REMARK  Name = =
REMARK  7 active torsions:
REMARK  status: ('A' for Active; 'I' for Inactive)
REMARK    1  A    between atoms: P_2  and  O_3
REMARK    2  A    between atoms: P_2  and  C_10
REMARK    3  A    between atoms: P_2  and  O_12
REMARK    4  A    between atoms: P_2  and  O_13
REMARK    5  A    between atoms: N_16  and  C_17
REMARK    6  A    between atoms: C_17  and  N_24
REMARK    7  A    between atoms: N_24  and  C_25
REMARK                            x       y       z     vdW  Elec       q    Type
REMARK                         _______ _______ _______ _____ _____    ______ ____
ROOT
ATOM      1  C   UNL     1      50.599 160.666  31.589  0.00  0.00    +0.147 C 
ATOM      2  C   UNL     1      50.031 160.171  32.862  0.00  0.00    +0.147 C 
ATOM      3  O   UNL     1      50.250 161.345  33.649  0.00  0.00    -0.356 OA
ATOM      4  C   UNL     1      49.460 162.241  32.886  0.00  0.00    +0.118 C 
ATOM      5  C   UNL     1      49.870 161.987  31.429  0.00  0.00    +0.067 C 
ATOM      6  C   UNL     1      48.102 161.535  33.001  0.00  0.00    +0.032 C 
ATOM      7  C   UNL     1      48.556 160.086  32.991  0.00  0.00    +0.035 C 
ENDROOT
BRANCH   1   8
ATOM      8  N   UNL     1      50.622 159.854  30.460  0.00  0.00    -0.228 NA
ATOM      9  H   UNL     1      51.132 158.996  30.669  0.00  0.00    +0.143 HD
ENDBRANCH   1   8
BRANCH   1  10
ATOM     10  N   UNL     1      51.998 161.055  31.856  0.00  0.00    -0.260 N 
ATOM     11  H   UNL     1      52.413 160.806  32.713  0.00  0.00    +0.160 HD
BRANCH  10  12
ATOM     12  C   UNL     1      52.733 161.760  30.929  0.00  0.00    +0.168 C 
ATOM     13  N   UNL     1      53.359 162.332  30.152  0.00  0.00    -0.174 NA
ENDBRANCH  10  12
ENDBRANCH   1  10
TORSDOF 3
