REMARK  Name = =
REMARK  2 active torsions:
REMARK  status: ('A' for Active; 'I' for Inactive)
REMARK    1  A    between atoms: C_1  and  C_19
REMARK    2  A    between atoms: C_19  and  C_26
REMARK                            x       y       z     vdW  Elec       q    Type
REMARK                         _______ _______ _______ _____ _____    ______ ____
ROOT
ATOM      1  C   UNL     1     -11.714 -42.998  28.584  0.00  0.00    -0.019 C 
ATOM      2  C   UNL     1     -12.689 -43.744  27.929  0.00  0.00    -0.008 C 
ATOM      3  C   UNL     1     -13.731 -43.133  27.270  0.00  0.00    -0.022 C 
ATOM      4  C   UNL     1     -13.866 -41.757  27.222  0.00  0.00    -0.021 C 
ATOM      5  C   UNL     1     -12.907 -41.008  27.867  0.00  0.00    -0.005 C 
ATOM      6  C   UNL     1     -11.856 -41.627  28.531  0.00  0.00    -0.004 C 
ATOM      7  C   UNL     1     -15.011 -41.117  26.506  0.00  0.00    +0.052 C 
ATOM      8  C   UNL     1     -15.416 -41.891  25.316  0.00  0.00    -0.026 C 
ATOM      9  C   UNL     1     -15.292 -43.201  25.388  0.00  0.00    -0.022 C 
ATOM     10  C   UNL     1     -15.693 -43.980  24.236  0.00  0.00    -0.005 C 
ATOM     11  C   UNL     1     -16.182 -43.421  23.130  0.00  0.00    -0.005 C 
ATOM     12  C   UNL     1     -16.339 -42.005  23.031  0.00  0.00    -0.026 C 
ATOM     13  C   UNL     1     -15.882 -41.171  24.117  0.00  0.00    -0.030 C 
ATOM     14  C   UNL     1     -14.764 -40.270  23.626  0.00  0.00    +0.026 C 
ATOM     15  C   UNL     1     -15.323 -39.395  22.516  0.00  0.00    +0.005 C 
ATOM     16  C   UNL     1     -15.730 -40.242  21.329  0.00  0.00    +0.005 C 
ATOM     17  C   UNL     1     -16.634 -41.379  21.744  0.00  0.00    +0.026 C 
ATOM     18  C   UNL     1     -14.759 -43.935  26.568  0.00  0.00    +0.052 C 
ENDROOT
BRANCH   1  19
ATOM     19  C   UNL     1     -10.564 -43.646  29.310  0.00  0.00    +0.040 C 
ATOM     20  C   UNL     1      -9.433 -43.876  28.365  0.00  0.00    +0.016 C 
ATOM     21  C   UNL     1      -8.398 -44.822  28.926  0.00  0.00    +0.070 C 
ATOM     22  C   UNL     1      -9.104 -46.125  29.096  0.00  0.00    +0.173 C 
ATOM     23  O   UNL     1      -8.660 -47.204  28.628  0.00  0.00    -0.291 OA
ATOM     24  C   UNL     1     -10.353 -46.076  29.844  0.00  0.00    +0.033 C 
ATOM     25  C   UNL     1     -10.982 -44.924  29.913  0.00  0.00    -0.020 C 
BRANCH  19  26
ATOM     26  C   UNL     1     -10.103 -42.759  30.448  0.00  0.00    +0.038 C 
ATOM     27  C   UNL     1      -9.558 -43.475  31.648  0.00  0.00    +0.059 C 
ATOM     28  N   UNL     1     -10.191 -42.396  32.439  0.00  0.00    -0.274 NA
ATOM     29  C   UNL     1      -9.323 -42.157  33.536  0.00  0.00    +0.072 C 
ATOM     30  C   UNL     1      -8.109 -42.641  33.317  0.00  0.00    +0.019 C 
ATOM     31  C   UNL     1      -8.093 -43.281  31.959  0.00  0.00    +0.017 C 
ATOM     32  C   UNL     1     -11.235 -42.431  31.439  0.00  0.00    +0.074 C 
ENDBRANCH  19  26
ENDBRANCH   1  19
TORSDOF 2
