REMARK  Name = =
REMARK  4 active torsions:
REMARK  status: ('A' for Active; 'I' for Inactive)
REMARK    1  A    between atoms: C_1  and  C_8
REMARK    2  A    between atoms: C_1  and  C_26
REMARK    3  A    between atoms: C_26  and  N_33
REMARK    4  A    between atoms: N_33  and  C_34
REMARK                            x       y       z     vdW  Elec       q    Type
REMARK                         _______ _______ _______ _____ _____    ______ ____
ROOT
ATOM      1  C   UNL     1     -10.468 -44.379  29.666  0.00  0.00    +0.052 C 
ATOM      2  C   UNL     1     -10.738 -45.762  30.232  0.00  0.00    +0.018 C 
ATOM      3  C   UNL     1     -11.509 -46.642  29.279  0.00  0.00    +0.070 C 
ATOM      4  C   UNL     1     -11.491 -46.104  27.871  0.00  0.00    +0.173 C 
ATOM      5  O   UNL     1     -12.413 -46.240  27.056  0.00  0.00    -0.291 OA
ATOM      6  C   UNL     1     -10.252 -45.380  27.525  0.00  0.00    +0.033 C 
ATOM      7  C   UNL     1      -9.752 -44.535  28.409  0.00  0.00    -0.018 C 
ENDROOT
BRANCH   1   8
ATOM      8  C   UNL     1     -11.823 -43.794  29.340  0.00  0.00    -0.018 C 
ATOM      9  C   UNL     1     -11.987 -42.974  28.220  0.00  0.00    -0.008 C 
ATOM     10  C   UNL     1     -13.192 -42.426  27.926  0.00  0.00    -0.022 C 
ATOM     11  C   UNL     1     -14.292 -42.663  28.725  0.00  0.00    -0.021 C 
ATOM     12  C   UNL     1     -14.184 -43.445  29.815  0.00  0.00    -0.005 C 
ATOM     13  C   UNL     1     -12.937 -44.008  30.113  0.00  0.00    -0.004 C 
ATOM     14  C   UNL     1     -15.616 -42.036  28.362  0.00  0.00    +0.052 C 
ATOM     15  C   UNL     1     -15.753 -42.192  26.856  0.00  0.00    -0.026 C 
ATOM     16  C   UNL     1     -14.699 -41.971  26.095  0.00  0.00    -0.022 C 
ATOM     17  C   UNL     1     -14.801 -42.113  24.653  0.00  0.00    -0.005 C 
ATOM     18  C   UNL     1     -15.939 -42.465  24.087  0.00  0.00    -0.005 C 
ATOM     19  C   UNL     1     -17.127 -42.726  24.858  0.00  0.00    -0.026 C 
ATOM     20  C   UNL     1     -17.046 -42.583  26.315  0.00  0.00    -0.030 C 
ATOM     21  C   UNL     1     -18.230 -41.911  26.944  0.00  0.00    +0.026 C 
ATOM     22  C   UNL     1     -18.790 -40.804  26.121  0.00  0.00    +0.005 C 
ATOM     23  C   UNL     1     -18.930 -41.071  24.666  0.00  0.00    +0.005 C 
ATOM     24  C   UNL     1     -18.404 -42.404  24.214  0.00  0.00    +0.026 C 
ATOM     25  C   UNL     1     -13.396 -41.571  26.738  0.00  0.00    +0.052 C 
ENDBRANCH   1   8
BRANCH   1  26
ATOM     26  C   UNL     1      -9.807 -43.519  30.693  0.00  0.00    +0.079 C 
ATOM     27  C   UNL     1      -8.389 -44.082  30.883  0.00  0.00    +0.073 C 
ATOM     28  N   UNL     1      -7.882 -42.742  31.098  0.00  0.00    -0.272 NA
ATOM     29  C   UNL     1      -6.749 -42.912  31.919  0.00  0.00    +0.072 C 
ATOM     30  C   UNL     1      -6.795 -44.084  32.537  0.00  0.00    +0.019 C 
ATOM     31  C   UNL     1      -8.059 -44.797  32.117  0.00  0.00    +0.019 C 
ATOM     32  C   UNL     1      -9.023 -42.308  30.244  0.00  0.00    +0.089 C 
BRANCH  26  33
ATOM     33  N   UNL     1     -10.496 -43.456  31.897  0.00  0.00    -0.275 NA
ATOM     34  H   UNL     1     -10.411 -44.388  32.303  0.00  0.00    +0.125 HD
BRANCH  33  35
ATOM     35  C   UNL     1     -10.235 -42.580  32.939  0.00  0.00    +0.174 C 
ATOM     36  O   UNL     1     -10.852 -43.071  34.119  0.00  0.00    -0.333 OA
ATOM     37  C   UNL     1     -10.242 -42.487  35.239  0.00  0.00    +0.208 C 
ATOM     38  C   UNL     1      -9.907 -41.060  34.978  0.00  0.00    +0.181 C 
ATOM     39  O   UNL     1      -9.080 -40.465  35.702  0.00  0.00    -0.293 OA
ATOM     40  C   UNL     1     -10.586 -40.412  33.854  0.00  0.00    +0.071 C 
ATOM     41  C   UNL     1     -10.773 -41.189  32.771  0.00  0.00    +0.054 C 
ENDBRANCH  33  35
ENDBRANCH  26  33
ENDBRANCH   1  26
TORSDOF 4
