MODEL 1
REMARK VINA RESULT:    -6.361      0.000      0.000
REMARK INTER + INTRA:          -8.657
REMARK INTER:                  -7.476
REMARK INTRA:                  -1.181
REMARK UNBOUND:                -1.181
REMARK  Name = =
REMARK  3 active torsions:
REMARK  status: ('A' for Active; 'I' for Inactive)
REMARK    1  A    between atoms: C_1  and  C_4
REMARK    2  A    between atoms: C_1  and  C_26
REMARK    3  A    between atoms: C_3  and  C_14
REMARK                            x       y       z     vdW  Elec       q    Type
REMARK                         _______ _______ _______ _____ _____    ______ ____
ROOT
ATOM      1  C   UNL     1      60.148 161.382  38.809  0.00  0.00    +0.046 C 
ATOM      2  C   UNL     1      61.431 160.647  38.428  0.00  0.00    +0.014 C 
ATOM      3  C   UNL     1      61.328 161.724  39.545  0.00  0.00    +0.063 C 
ENDROOT
BRANCH   1   4
ATOM      4  C   UNL     1      58.934 160.619  39.221  0.00  0.00    +0.028 C 
ATOM      5  C   UNL     1      59.095 159.124  39.069  0.00  0.00    +0.005 C 
ATOM      6  C   UNL     1      59.290 158.444  40.416  0.00  0.00    +0.005 C 
ATOM      7  C   UNL     1      58.065 158.685  41.255  0.00  0.00    +0.026 C 
ATOM      8  C   UNL     1      57.852 160.139  41.411  0.00  0.00    -0.026 C 
ATOM      9  C   UNL     1      58.240 161.038  40.456  0.00  0.00    -0.026 C 
ATOM     10  C   UNL     1      57.981 162.367  40.615  0.00  0.00    -0.005 C 
ATOM     11  C   UNL     1      57.325 162.796  41.749  0.00  0.00    -0.000 C 
ATOM     12  C   UNL     1      56.922 161.912  42.726  0.00  0.00    -0.000 C 
ATOM     13  C   UNL     1      57.199 160.572  42.538  0.00  0.00    -0.005 C 
ENDBRANCH   1   4
BRANCH   3  14
ATOM     14  C   UNL     1      61.912 161.156  40.775  0.00  0.00    +0.126 C 
ATOM     15  C   UNL     1      63.276 161.013  40.871  0.00  0.00    +0.075 C 
ATOM     16  C   UNL     1      63.919 160.490  41.977  0.00  0.00    +0.202 C 
ATOM     17  O   UNL     1      65.172 160.358  42.070  0.00  0.00    -0.286 OA
ATOM     18  C   UNL     1      63.125 160.099  43.034  0.00  0.00    +0.083 C 
ATOM     19  C   UNL     1      61.763 160.274  42.864  0.00  0.00    +0.182 C 
ATOM     20  O   UNL     1      61.218 160.770  41.797  0.00  0.00    -0.454 OA
ENDBRANCH   3  14
BRANCH   1  26
ATOM     21  N   UNL     1      60.105 163.582  37.676  0.00  0.00    -0.248 NA
ATOM     22  C   UNL     1      59.770 164.390  36.638  0.00  0.00    +0.098 C 
ATOM     23  C   UNL     1      59.110 163.919  35.531  0.00  0.00    +0.021 C 
ATOM     24  C   UNL     1      58.785 162.593  35.490  0.00  0.00    +0.003 C 
ATOM     25  C   UNL     1      59.134 161.758  36.575  0.00  0.00    +0.015 C 
ATOM     26  C   UNL     1      59.785 162.284  37.633  0.00  0.00    +0.059 C 
ENDBRANCH   1  26
TORSDOF 3
ENDMDL
