REMARK  Name = =
REMARK  3 active torsions:
REMARK  status: ('A' for Active; 'I' for Inactive)
REMARK    1  A    between atoms: C_1  and  C_4
REMARK    2  A    between atoms: C_1  and  C_26
REMARK    3  A    between atoms: C_3  and  C_14
REMARK                            x       y       z     vdW  Elec       q    Type
REMARK                         _______ _______ _______ _____ _____    ______ ____
ROOT
ATOM      1  C   UNL     1      53.695 152.145  26.146  0.00  0.00    +0.046 C 
ATOM      2  C   UNL     1      55.078 152.523  25.621  0.00  0.00    +0.014 C 
ATOM      3  C   UNL     1      53.744 153.151  25.127  0.00  0.00    +0.063 C 
ENDROOT
BRANCH   1   4
ATOM      4  C   UNL     1      53.383 152.251  27.601  0.00  0.00    +0.028 C 
ATOM      5  C   UNL     1      54.573 151.952  28.484  0.00  0.00    +0.005 C 
ATOM      6  C   UNL     1      55.150 153.223  29.090  0.00  0.00    +0.005 C 
ATOM      7  C   UNL     1      54.096 153.863  29.951  0.00  0.00    +0.026 C 
ATOM      8  C   UNL     1      52.899 154.152  29.134  0.00  0.00    -0.026 C 
ATOM      9  C   UNL     1      52.557 153.390  28.050  0.00  0.00    -0.026 C 
ATOM     10  C   UNL     1      51.418 153.659  27.351  0.00  0.00    -0.005 C 
ATOM     11  C   UNL     1      50.615 154.707  27.746  0.00  0.00    -0.000 C 
ATOM     12  C   UNL     1      50.935 155.490  28.834  0.00  0.00    -0.000 C 
ATOM     13  C   UNL     1      52.095 155.194  29.522  0.00  0.00    -0.005 C 
ENDBRANCH   1   4
BRANCH   3  14
ATOM     14  C   UNL     1      53.878 154.618  25.208  0.00  0.00    +0.126 C 
ATOM     15  C   UNL     1      54.571 155.288  24.228  0.00  0.00    +0.075 C 
ATOM     16  C   UNL     1      54.755 156.657  24.214  0.00  0.00    +0.202 C 
ATOM     17  O   UNL     1      55.390 157.277  23.315  0.00  0.00    -0.286 OA
ATOM     18  C   UNL     1      54.200 157.373  25.254  0.00  0.00    +0.083 C 
ATOM     19  C   UNL     1      53.518 156.630  26.202  0.00  0.00    +0.182 C 
ATOM     20  O   UNL     1      53.381 155.341  26.160  0.00  0.00    -0.454 OA
ENDBRANCH   3  14
BRANCH   1  26
ATOM     21  N   UNL     1      52.376 150.051  26.196  0.00  0.00    -0.248 NA
ATOM     22  C   UNL     1      52.138 148.774  25.801  0.00  0.00    +0.098 C 
ATOM     23  C   UNL     1      52.935 148.133  24.887  0.00  0.00    +0.021 C 
ATOM     24  C   UNL     1      54.000 148.814  24.370  0.00  0.00    +0.003 C 
ATOM     25  C   UNL     1      54.244 150.142  24.787  0.00  0.00    +0.015 C 
ATOM     26  C   UNL     1      53.420 150.716  25.688  0.00  0.00    +0.059 C 
ENDBRANCH   1  26
TORSDOF 3
