REMARK  Name = =
REMARK  0 active torsions:
REMARK  status: ('A' for Active; 'I' for Inactive)
REMARK                            x       y       z     vdW  Elec       q    Type
REMARK                         _______ _______ _______ _____ _____    ______ ____
ROOT
ATOM      1  C   UNL     1      55.461 162.283  31.425  0.00  0.00    +0.004 C 
ATOM      2  C   UNL     1      54.873 163.134  30.333  0.00  0.00    +0.001 C 
ATOM      3  C   UNL     1      53.575 162.654  29.804  0.00  0.00    +0.004 C 
ATOM      4  C   UNL     1      52.850 161.653  30.556  0.00  0.00    +0.018 C 
ATOM      5  C   UNL     1      51.352 161.783  30.610  0.00  0.00    +0.004 C 
ATOM      6  C   UNL     1      50.815 160.425  30.906  0.00  0.00    +0.005 C 
ATOM      7  C   UNL     1      49.419 160.344  31.328  0.00  0.00    +0.000 C 
ATOM      8  C   UNL     1      48.933 161.415  32.245  0.00  0.00    +0.000 C 
ATOM      9  C   UNL     1      47.438 161.256  32.191  0.00  0.00    +0.000 C 
ATOM     10  C   UNL     1      47.111 160.367  31.034  0.00  0.00    +0.000 C 
ATOM     11  C   UNL     1      48.396 160.350  30.227  0.00  0.00    +0.000 C 
ATOM     12  C   UNL     1      49.393 162.750  31.700  0.00  0.00    +0.000 C 
ATOM     13  C   UNL     1      50.910 162.734  31.723  0.00  0.00    +0.000 C 
ATOM     14  C   UNL     1      51.688 159.549  31.735  0.00  0.00    +0.025 C 
ATOM     15  C   UNL     1      52.752 160.235  32.475  0.00  0.00    -0.035 C 
ATOM     16  C   UNL     1      53.334 161.289  31.883  0.00  0.00    -0.049 C 
ATOM     17  C   UNL     1      54.419 162.077  32.504  0.00  0.00    +0.022 C 
ENDROOT
TORSDOF 0
