REMARK  Name = =
REMARK  1 active torsions:
REMARK  status: ('A' for Active; 'I' for Inactive)
REMARK    1  A    between atoms: C_1  and  N_18
REMARK                            x       y       z     vdW  Elec       q    Type
REMARK                         _______ _______ _______ _____ _____    ______ ____
ROOT
ATOM      1  C   UNL     1      54.815 161.967  30.462  0.00  0.00    +0.077 C 
ATOM      2  C   UNL     1      54.198 162.448  31.753  0.00  0.00    +0.020 C 
ATOM      3  C   UNL     1      53.012 163.330  31.416  0.00  0.00    +0.006 C 
ATOM      4  C   UNL     1      51.883 162.434  30.918  0.00  0.00    +0.018 C 
ATOM      5  C   UNL     1      51.236 161.708  32.034  0.00  0.00    +0.004 C 
ATOM      6  C   UNL     1      50.680 160.392  31.763  0.00  0.00    +0.005 C 
ATOM      7  C   UNL     1      49.470 159.924  32.436  0.00  0.00    +0.000 C 
ATOM      8  C   UNL     1      48.957 160.765  33.561  0.00  0.00    +0.000 C 
ATOM      9  C   UNL     1      47.493 160.424  33.688  0.00  0.00    +0.000 C 
ATOM     10  C   UNL     1      47.151 159.548  32.513  0.00  0.00    +0.000 C 
ATOM     11  C   UNL     1      48.294 159.665  31.527  0.00  0.00    +0.000 C 
ATOM     12  C   UNL     1      49.047 162.230  33.110  0.00  0.00    +0.000 C 
ATOM     13  C   UNL     1      50.536 162.503  33.055  0.00  0.00    +0.000 C 
ATOM     14  C   UNL     1      50.689 159.928  30.343  0.00  0.00    +0.025 C 
ATOM     15  C   UNL     1      51.967 160.294  29.722  0.00  0.00    -0.035 C 
ATOM     16  C   UNL     1      52.510 161.461  29.999  0.00  0.00    -0.047 C 
ATOM     17  C   UNL     1      53.795 161.805  29.361  0.00  0.00    +0.041 C 
ENDROOT
BRANCH   1  18
ATOM     18  N   UNL     1      55.888 162.799  30.003  0.00  0.00    -0.290 N 
ATOM     19  C   UNL     1      56.821 162.460  29.001  0.00  0.00    +0.304 C 
ATOM     20  O   UNL     1      56.682 161.311  28.467  0.00  0.00    -0.253 OA
ATOM     21  N   UNL     1      57.851 163.341  28.607  0.00  0.00    -0.259 N 
ATOM     22  C   UNL     1      57.941 164.631  29.260  0.00  0.00    +0.127 C 
ATOM     23  C   UNL     1      58.942 165.530  28.566  0.00  0.00    +0.164 C 
ATOM     24  O   UNL     1      58.761 165.318  27.187  0.00  0.00    -0.350 OA
ATOM     25  C   UNL     1      59.406 164.116  26.878  0.00  0.00    +0.164 C 
ATOM     26  C   UNL     1      58.768 162.935  27.585  0.00  0.00    +0.127 C 
ATOM     27  H   UNL     1      55.982 163.684  30.424  0.00  0.00    +0.151 HD
ENDBRANCH   1  18
TORSDOF 1
