REMARK  Name = =
REMARK  5 active torsions:
REMARK  status: ('A' for Active; 'I' for Inactive)
REMARK    1  A    between atoms: C_1  and  N_18
REMARK    2  A    between atoms: C_1  and  S_27
REMARK    3  A    between atoms: S_27  and  C_28
REMARK    4  A    between atoms: C_28  and  N_30
REMARK    5  A    between atoms: N_30  and  O_31
REMARK                            x       y       z     vdW  Elec       q    Type
REMARK                         _______ _______ _______ _____ _____    ______ ____
ROOT
ATOM      1  C   UNL     1      52.331 161.724  31.265  0.00  0.00    +0.107 C 
ATOM      2  C   UNL     1      53.658 161.719  31.945  0.00  0.00    +0.029 C 
ATOM      3  C   UNL     1      54.486 162.966  31.677  0.00  0.00    +0.007 C 
ATOM      4  C   UNL     1      54.700 163.225  30.213  0.00  0.00    +0.018 C 
ATOM      5  C   UNL     1      56.141 163.291  29.855  0.00  0.00    +0.004 C 
ATOM      6  C   UNL     1      56.408 162.916  28.407  0.00  0.00    +0.009 C 
ATOM      7  C   UNL     1      57.892 162.865  28.228  0.00  0.00    +0.022 C 
ATOM      8  C   UNL     1      58.649 163.998  28.764  0.00  0.00    +0.008 C 
ATOM      9  C   UNL     1      59.539 164.541  27.666  0.00  0.00    +0.026 C 
ATOM     10  C   UNL     1      59.371 163.645  26.480  0.00  0.00    -0.031 C 
ATOM     11  C   UNL     1      58.349 162.596  26.833  0.00  0.00    -0.031 C 
ATOM     12  C   UNL     1      57.957 165.015  29.550  0.00  0.00    +0.001 C 
ATOM     13  C   UNL     1      56.565 164.761  29.959  0.00  0.00    +0.000 C 
ATOM     14  C   UNL     1      55.833 161.564  28.058  0.00  0.00    +0.026 C 
ATOM     15  C   UNL     1      54.391 161.495  28.457  0.00  0.00    -0.035 C 
ATOM     16  C   UNL     1      53.905 162.250  29.426  0.00  0.00    -0.046 C 
ATOM     17  C   UNL     1      52.456 162.164  29.804  0.00  0.00    +0.050 C 
ENDROOT
BRANCH   1  18
ATOM     18  N   UNL     1      51.847 160.333  31.174  0.00  0.00    -0.283 N 
ATOM     19  C   UNL     1      50.628 160.056  30.520  0.00  0.00    +0.305 C 
ATOM     20  O   UNL     1      49.991 161.026  30.040  0.00  0.00    -0.253 OA
ATOM     21  N   UNL     1      50.092 158.758  30.380  0.00  0.00    -0.259 N 
ATOM     22  C   UNL     1      48.823 158.584  29.699  0.00  0.00    +0.127 C 
ATOM     23  C   UNL     1      48.539 157.207  29.225  0.00  0.00    +0.164 C 
ATOM     24  O   UNL     1      49.212 156.217  29.916  0.00  0.00    -0.350 OA
ATOM     25  C   UNL     1      50.561 156.469  29.917  0.00  0.00    +0.164 C 
ATOM     26  C   UNL     1      50.800 157.618  30.909  0.00  0.00    +0.127 C 
ATOM     27  H   UNL     1      52.373 159.600  31.569  0.00  0.00    +0.152 HD
ENDBRANCH   1  18
BRANCH   1  28
ATOM     28  S   UNL     1      51.108 162.686  32.136  0.00  0.00    -0.074 S 
BRANCH  28  29
ATOM     29  C   UNL     1      49.976 161.734  33.106  0.00  0.00    +0.131 C 
ATOM     30  S   UNL     1      48.840 162.534  34.001  0.00  0.00    -0.026 S 
BRANCH  29  31
ATOM     31  N   UNL     1      49.981 160.325  33.167  0.00  0.00    -0.215 N 
ATOM     32  H   UNL     1      50.577 159.806  32.581  0.00  0.00    +0.180 HD
BRANCH  31  33
ATOM     33  O   UNL     1      49.149 159.683  34.049  0.00  0.00    -0.297 OA
ATOM     34  H   UNL     1      48.635 160.339  34.545  0.00  0.00    +0.241 HD
ENDBRANCH  31  33
ENDBRANCH  29  31
ENDBRANCH  28  29
ENDBRANCH   1  28
TORSDOF 5
