REMARK  Name = =
REMARK  7 active torsions:
REMARK  status: ('A' for Active; 'I' for Inactive)
REMARK    1  A    between atoms: C_1  and  N_18
REMARK    2  A    between atoms: C_1  and  S_27
REMARK    3  A    between atoms: S_27  and  C_28
REMARK    4  A    between atoms: S_27  and  C_32
REMARK    5  A    between atoms: C_28  and  N_30
REMARK    6  A    between atoms: N_30  and  O_31
REMARK    7  A    between atoms: C_32  and  N_33
REMARK                            x       y       z     vdW  Elec       q    Type
REMARK                         _______ _______ _______ _____ _____    ______ ____
ROOT
ATOM      1  C   UNL     1      50.785 159.932  31.316  0.00  0.00    +0.090 C 
ATOM      2  C   UNL     1      50.757 158.515  31.954  0.00  0.00    +0.028 C 
ATOM      3  C   UNL     1      50.182 157.484  31.023  0.00  0.00    +0.007 C 
ATOM      4  C   UNL     1      51.255 157.253  29.972  0.00  0.00    +0.018 C 
ATOM      5  C   UNL     1      50.817 156.344  28.853  0.00  0.00    +0.004 C 
ATOM      6  C   UNL     1      51.932 156.148  27.907  0.00  0.00    +0.005 C 
ATOM      7  C   UNL     1      52.738 154.884  28.113  0.00  0.00    +0.000 C 
ATOM      8  C   UNL     1      51.958 153.753  28.700  0.00  0.00    +0.000 C 
ATOM      9  C   UNL     1      52.378 152.492  28.015  0.00  0.00    +0.000 C 
ATOM     10  C   UNL     1      53.248 152.870  26.858  0.00  0.00    +0.000 C 
ATOM     11  C   UNL     1      53.301 154.368  26.802  0.00  0.00    +0.000 C 
ATOM     12  C   UNL     1      50.491 153.981  28.407  0.00  0.00    +0.000 C 
ATOM     13  C   UNL     1      50.058 155.147  29.271  0.00  0.00    +0.000 C 
ATOM     14  C   UNL     1      52.876 157.315  27.913  0.00  0.00    +0.025 C 
ATOM     15  C   UNL     1      52.240 158.616  28.287  0.00  0.00    -0.035 C 
ATOM     16  C   UNL     1      51.432 158.578  29.315  0.00  0.00    -0.046 C 
ATOM     17  C   UNL     1      50.702 159.735  29.831  0.00  0.00    +0.049 C 
ENDROOT
BRANCH   1  18
ATOM     18  N   UNL     1      52.070 160.455  31.723  0.00  0.00    -0.284 N 
ATOM     19  C   UNL     1      52.765 161.440  30.973  0.00  0.00    +0.305 C 
ATOM     20  O   UNL     1      52.323 161.907  29.910  0.00  0.00    -0.253 OA
ATOM     21  N   UNL     1      54.032 161.936  31.435  0.00  0.00    -0.259 N 
ATOM     22  C   UNL     1      54.591 161.427  32.665  0.00  0.00    +0.127 C 
ATOM     23  C   UNL     1      55.944 162.105  32.844  0.00  0.00    +0.164 C 
ATOM     24  O   UNL     1      56.712 161.881  31.706  0.00  0.00    -0.350 OA
ATOM     25  C   UNL     1      56.226 162.568  30.601  0.00  0.00    +0.164 C 
ATOM     26  C   UNL     1      54.774 162.929  30.717  0.00  0.00    +0.127 C 
ATOM     27  H   UNL     1      52.479 160.115  32.552  0.00  0.00    +0.152 HD
ENDBRANCH   1  18
BRANCH   1  28
ATOM     28  S   UNL     1      49.515 160.753  32.035  0.00  0.00    -0.160 S 
ATOM     29  H   UNL     1      50.200 161.707  32.720  0.00  0.00    +0.092 HD
BRANCH  28  30
ATOM     30  C   UNL     1      48.581 159.618  33.047  0.00  0.00    +0.113 C 
ATOM     31  S   UNL     1      46.980 159.825  33.188  0.00  0.00    -0.028 S 
BRANCH  30  32
ATOM     32  N   UNL     1      49.209 158.552  33.725  0.00  0.00    -0.217 N 
ATOM     33  H   UNL     1      50.174 158.619  33.908  0.00  0.00    +0.180 HD
BRANCH  32  34
ATOM     34  O   UNL     1      48.561 157.454  34.132  0.00  0.00    -0.297 OA
ATOM     35  H   UNL     1      47.625 157.522  33.887  0.00  0.00    +0.241 HD
ENDBRANCH  32  34
ENDBRANCH  30  32
ENDBRANCH  28  30
BRANCH  28  36
ATOM     36  C   UNL     1      48.539 161.717  31.214  0.00  0.00    +0.111 C 
BRANCH  36  37
ATOM     37  N   UNL     1      49.142 162.374  30.067  0.00  0.00    -0.313 NA
ATOM     38  H   UNL     1      48.447 162.964  29.609  0.00  0.00    +0.120 HD
ATOM     39  H   UNL     1      49.477 161.670  29.409  0.00  0.00    +0.120 HD
ENDBRANCH  36  37
ENDBRANCH  28  36
ENDBRANCH   1  28
TORSDOF 7
