REMARK  Name = =
REMARK  9 active torsions:
REMARK  status: ('A' for Active; 'I' for Inactive)
REMARK    1  A    between atoms: C_1  and  N_18
REMARK    2  A    between atoms: C_1  and  S_27
REMARK    3  A    between atoms: S_27  and  C_28
REMARK    4  A    between atoms: S_27  and  C_32
REMARK    5  A    between atoms: C_28  and  N_30
REMARK    6  A    between atoms: N_30  and  O_31
REMARK    7  A    between atoms: C_32  and  N_33
REMARK    8  A    between atoms: N_33  and  C_34
REMARK    9  A    between atoms: C_36  and  S_40
REMARK                            x       y       z     vdW  Elec       q    Type
REMARK                         _______ _______ _______ _____ _____    ______ ____
ROOT
ATOM      1  C   UNL     1      52.042 157.824  29.270  0.00  0.00    +0.090 C 
ATOM      2  C   UNL     1      51.919 158.197  27.786  0.00  0.00    +0.028 C 
ATOM      3  C   UNL     1      51.676 157.033  26.894  0.00  0.00    +0.007 C 
ATOM      4  C   UNL     1      52.937 156.162  26.992  0.00  0.00    +0.018 C 
ATOM      5  C   UNL     1      53.004 155.087  25.975  0.00  0.00    +0.004 C 
ATOM      6  C   UNL     1      53.487 153.764  26.524  0.00  0.00    +0.005 C 
ATOM      7  C   UNL     1      53.154 152.705  25.463  0.00  0.00    +0.000 C 
ATOM      8  C   UNL     1      53.701 153.189  24.152  0.00  0.00    +0.000 C 
ATOM      9  C   UNL     1      54.318 152.032  23.438  0.00  0.00    +0.000 C 
ATOM     10  C   UNL     1      54.081 150.837  24.353  0.00  0.00    +0.000 C 
ATOM     11  C   UNL     1      53.907 151.432  25.724  0.00  0.00    +0.000 C 
ATOM     12  C   UNL     1      54.695 154.299  24.385  0.00  0.00    +0.000 C 
ATOM     13  C   UNL     1      53.986 155.518  24.906  0.00  0.00    +0.000 C 
ATOM     14  C   UNL     1      52.789 153.340  27.771  0.00  0.00    +0.025 C 
ATOM     15  C   UNL     1      52.897 154.423  28.775  0.00  0.00    -0.035 C 
ATOM     16  C   UNL     1      52.961 155.671  28.394  0.00  0.00    -0.046 C 
ATOM     17  C   UNL     1      53.065 156.724  29.450  0.00  0.00    +0.049 C 
ENDROOT
BRANCH   1  18
ATOM     18  N   UNL     1      52.439 159.031  29.939  0.00  0.00    -0.284 N 
ATOM     19  C   UNL     1      53.729 159.622  29.927  0.00  0.00    +0.305 C 
ATOM     20  O   UNL     1      54.616 159.051  29.250  0.00  0.00    -0.253 OA
ATOM     21  N   UNL     1      54.025 160.816  30.648  0.00  0.00    -0.259 N 
ATOM     22  C   UNL     1      53.088 161.539  31.444  0.00  0.00    +0.127 C 
ATOM     23  C   UNL     1      53.490 163.018  31.358  0.00  0.00    +0.164 C 
ATOM     24  O   UNL     1      54.731 163.253  31.892  0.00  0.00    -0.350 OA
ATOM     25  C   UNL     1      55.580 162.160  31.840  0.00  0.00    +0.164 C 
ATOM     26  C   UNL     1      55.377 161.340  30.571  0.00  0.00    +0.127 C 
ATOM     27  H   UNL     1      51.745 159.496  30.459  0.00  0.00    +0.152 HD
ENDBRANCH   1  18
BRANCH   1  28
ATOM     28  S   UNL     1      50.476 157.205  29.714  0.00  0.00    -0.156 S 
ATOM     29  H   UNL     1      49.543 157.859  28.972  0.00  0.00    +0.093 HD
BRANCH  28  30
ATOM     30  C   UNL     1      50.510 155.419  29.454  0.00  0.00    +0.114 C 
ATOM     31  S   UNL     1      49.896 154.882  28.020  0.00  0.00    -0.028 S 
BRANCH  30  32
ATOM     32  N   UNL     1      50.999 154.502  30.378  0.00  0.00    -0.217 N 
ATOM     33  H   UNL     1      51.137 153.589  30.036  0.00  0.00    +0.180 HD
BRANCH  32  34
ATOM     34  O   UNL     1      51.309 154.685  31.668  0.00  0.00    -0.297 OA
ATOM     35  H   UNL     1      51.141 155.608  31.913  0.00  0.00    +0.241 HD
ENDBRANCH  32  34
ENDBRANCH  30  32
ENDBRANCH  28  30
BRANCH  28  36
ATOM     36  C   UNL     1      50.143 157.422  31.345  0.00  0.00    +0.134 C 
BRANCH  36  37
ATOM     37  N   UNL     1      49.951 158.713  31.888  0.00  0.00    -0.310 N 
ATOM     38  H   UNL     1      50.336 158.881  32.778  0.00  0.00    +0.149 HD
BRANCH  37  39
ATOM     39  C   UNL     1      49.253 159.799  31.272  0.00  0.00    +0.130 C 
ATOM     40  C   UNL     1      49.140 159.948  29.926  0.00  0.00    +0.040 C 
ATOM     41  C   UNL     1      48.454 161.043  29.415  0.00  0.00    +0.026 C 
ATOM     42  C   UNL     1      47.888 161.980  30.248  0.00  0.00    +0.027 C 
ATOM     43  C   UNL     1      48.017 161.804  31.608  0.00  0.00    +0.101 C 
ATOM     44  N   UNL     1      48.684 160.736  32.058  0.00  0.00    -0.229 NA
BRANCH  41  45
ATOM     45  S   UNL     1      48.310 161.236  27.650  0.00  0.00    -0.141 S 
ATOM     46  H   UNL     1      48.938 160.203  27.028  0.00  0.00    +0.107 HD
ENDBRANCH  41  45
ENDBRANCH  37  39
ENDBRANCH  36  37
ENDBRANCH  28  36
ENDBRANCH   1  28
TORSDOF 9
