REMARK  Name = =
REMARK  2 active torsions:
REMARK  status: ('A' for Active; 'I' for Inactive)
REMARK    1  A    between atoms: C_1  and  C_12
REMARK    2  A    between atoms: N_11  and  C_14
REMARK                            x       y       z     vdW  Elec       q    Type
REMARK                         _______ _______ _______ _____ _____    ______ ____
ROOT
ATOM      1  C   UNL     1      52.174 152.345  27.195  0.00  0.00    +0.134 C 
ATOM      2  N   UNL     1      53.057 152.306  26.165  0.00  0.00    -0.241 NA
ATOM      3  C   UNL     1      53.567 153.419  25.640  0.00  0.00    +0.081 C 
ATOM      4  C   UNL     1      53.231 154.656  26.106  0.00  0.00    +0.018 C 
ATOM      5  C   UNL     1      52.341 154.743  27.147  0.00  0.00    +0.003 C 
ATOM      6  C   UNL     1      51.819 153.579  27.683  0.00  0.00    +0.024 C 
ATOM      7  C   UNL     1      53.751 155.832  25.573  0.00  0.00    +0.001 C 
ATOM      8  C   UNL     1      54.644 155.742  24.530  0.00  0.00    +0.000 C 
ATOM      9  C   UNL     1      54.995 154.500  24.045  0.00  0.00    +0.002 C 
ATOM     10  C   UNL     1      54.475 153.346  24.579  0.00  0.00    +0.019 C 
ENDROOT
BRANCH   1  12
ATOM     11  N   UNL     1      50.959 150.990  28.927  0.00  0.00    -0.277 N 
ATOM     12  C   UNL     1      51.658 151.099  27.719  0.00  0.00    +0.265 C 
ATOM     13  O   UNL     1      51.826 150.009  27.078  0.00  0.00    -0.268 OA
ATOM     14  H   UNL     1      50.810 151.810  29.451  0.00  0.00    +0.152 HD
BRANCH  11  15
ATOM     15  C   UNL     1      50.443 149.746  29.452  0.00  0.00    +0.221 C 
ATOM     16  N   UNL     1      50.945 149.619  30.797  0.00  0.00    -0.226 NA
ATOM     17  C   UNL     1      49.970 149.550  31.592  0.00  0.00    +0.196 C 
ATOM     18  N   UNL     1      48.751 149.622  30.875  0.00  0.00    -0.224 NA
ATOM     19  C   UNL     1      48.994 149.737  29.620  0.00  0.00    +0.119 C 
ENDBRANCH  11  15
ENDBRANCH   1  12
TORSDOF 2
