REMARK  Name = =
REMARK  2 active torsions:
REMARK  status: ('A' for Active; 'I' for Inactive)
REMARK    1  A    between atoms: C_1  and  C_13
REMARK    2  A    between atoms: N_12  and  C_15
REMARK                            x       y       z     vdW  Elec       q    Type
REMARK                         _______ _______ _______ _____ _____    ______ ____
ROOT
ATOM      1  C   UNL     1      52.874 153.521  27.465  0.00  0.00    +0.135 C 
ATOM      2  N   UNL     1      53.450 152.847  26.675  0.00  0.00    -0.241 NA
ATOM      3  C   UNL     1      53.726 151.846  25.954  0.00  0.00    +0.081 C 
ATOM      4  C   UNL     1      52.790 150.794  26.156  0.00  0.00    +0.018 C 
ATOM      5  C   UNL     1      51.823 151.127  27.074  0.00  0.00    +0.003 C 
ATOM      6  C   UNL     1      51.712 152.254  27.736  0.00  0.00    +0.024 C 
ATOM      7  C   UNL     1      52.878 149.627  25.491  0.00  0.00    +0.001 C 
ATOM      8  C   UNL     1      53.863 149.387  24.578  0.00  0.00    +0.000 C 
ATOM      9  C   UNL     1      54.786 150.406  24.361  0.00  0.00    +0.002 C 
ATOM     10  C   UNL     1      54.690 151.581  25.044  0.00  0.00    +0.019 C 
ENDROOT
BRANCH   1  13
ATOM     11 BR   UNL     1      50.669 155.905  30.224  0.00  0.00    +0.042 Br
ATOM     12  N   UNL     1      51.655 155.562  28.561  0.00  0.00    -0.196 N 
ATOM     13  C   UNL     1      52.192 154.320  28.403  0.00  0.00    +0.277 C 
ATOM     14  O   UNL     1      52.049 153.548  29.564  0.00  0.00    -0.267 OA
BRANCH  12  15
ATOM     15  C   UNL     1      51.799 156.778  27.782  0.00  0.00    +0.234 C 
ATOM     16  N   UNL     1      52.499 156.321  26.539  0.00  0.00    -0.224 NA
ATOM     17  C   UNL     1      53.666 156.848  26.523  0.00  0.00    +0.196 C 
ATOM     18  N   UNL     1      53.859 157.671  27.699  0.00  0.00    -0.224 NA
ATOM     19  C   UNL     1      52.801 157.627  28.405  0.00  0.00    +0.120 C 
ENDBRANCH  12  15
ENDBRANCH   1  13
TORSDOF 2
