REMARK  Name = =
REMARK  5 active torsions:
REMARK  status: ('A' for Active; 'I' for Inactive)
REMARK    1  A    between atoms: C_1  and  C_6
REMARK    2  A    between atoms: C_1  and  N_18
REMARK    3  A    between atoms: C_15  and  C_16
REMARK    4  A    between atoms: N_18  and  C_19
REMARK    5  A    between atoms: C_19  and  C_21
REMARK                            x       y       z     vdW  Elec       q    Type
REMARK                         _______ _______ _______ _____ _____    ______ ____
ROOT
ATOM      1  C   UNL     1      52.342 156.285  27.362  0.00  0.00    +0.200 C 
ATOM      2  N   UNL     1      52.405 156.981  26.089  0.00  0.00    -0.228 NA
ATOM      3  C   UNL     1      53.426 157.749  26.075  0.00  0.00    +0.196 C 
ATOM      4  N   UNL     1      54.109 157.629  27.309  0.00  0.00    -0.224 NA
ATOM      5  C   UNL     1      53.513 156.792  28.082  0.00  0.00    +0.117 C 
ENDROOT
BRANCH   1   6
ATOM      6  C   UNL     1      51.034 156.556  28.066  0.00  0.00    +0.046 C 
ATOM      7  C   UNL     1      51.229 157.758  28.953  0.00  0.00    +0.004 C 
ATOM      8  C   UNL     1      50.857 159.046  28.221  0.00  0.00    +0.000 C 
ATOM      9  C   UNL     1      50.817 160.163  29.231  0.00  0.00    +0.000 C 
ATOM     10  C   UNL     1      51.707 159.894  30.424  0.00  0.00    +0.000 C 
ATOM     11  C   UNL     1      51.269 158.665  31.203  0.00  0.00    +0.000 C 
ATOM     12  C   UNL     1      50.516 157.783  30.233  0.00  0.00    +0.000 C 
ATOM     13  C   UNL     1      49.975 156.566  30.831  0.00  0.00    +0.000 C 
ATOM     14  C   UNL     1      49.332 155.707  29.733  0.00  0.00    +0.001 C 
ATOM     15  C   UNL     1      50.534 155.394  28.848  0.00  0.00    +0.015 C 
BRANCH  15  16
ATOM     16  C   UNL     1      51.005 154.185  28.891  0.00  0.00    +0.068 C 
ATOM     17 BR   UNL     1      51.167 153.571  27.437  0.00  0.00    -0.081 Br
ENDBRANCH  15  16
ENDBRANCH   1   6
BRANCH   1  18
ATOM     18  N   UNL     1      52.451 154.869  27.000  0.00  0.00    -0.176 NA
BRANCH  18  19
ATOM     19  C   UNL     1      53.586 154.495  26.227  0.00  0.00    +0.284 C 
ATOM     20  O   UNL     1      54.483 155.312  25.899  0.00  0.00    -0.267 OA
BRANCH  19  21
ATOM     21  C   UNL     1      53.759 153.113  25.773  0.00  0.00    +0.136 C 
ATOM     22  N   UNL     1      52.961 152.122  26.263  0.00  0.00    -0.241 NA
ATOM     23  C   UNL     1      53.109 150.848  25.853  0.00  0.00    +0.081 C 
ATOM     24  C   UNL     1      54.070 150.478  24.924  0.00  0.00    +0.018 C 
ATOM     25  C   UNL     1      54.870 151.489  24.437  0.00  0.00    +0.003 C 
ATOM     26  C   UNL     1      54.720 152.794  24.855  0.00  0.00    +0.024 C 
ATOM     27  C   UNL     1      54.219 149.175  24.508  0.00  0.00    +0.001 C 
ATOM     28  C   UNL     1      53.395 148.220  25.027  0.00  0.00    +0.000 C 
ATOM     29  C   UNL     1      52.430 148.555  25.954  0.00  0.00    +0.002 C 
ATOM     30  C   UNL     1      52.295 149.864  26.358  0.00  0.00    +0.019 C 
ENDBRANCH  19  21
ENDBRANCH  18  19
ENDBRANCH   1  18
TORSDOF 5
