REMARK  Name = =
REMARK  0 active torsions:
REMARK  status: ('A' for Active; 'I' for Inactive)
REMARK                            x       y       z     vdW  Elec       q    Type
REMARK                         _______ _______ _______ _____ _____    ______ ____
ROOT
ATOM      1  C   UNL     1      -4.072  -4.070  30.471  0.00  0.00    +0.062 C 
ATOM      2  C   UNL     1      -2.959  -4.104  29.632  0.00  0.00    +0.016 C 
ATOM      3  C   UNL     1      -2.507  -3.280  28.619  0.00  0.00    +0.001 C 
ATOM      4  C   UNL     1      -1.339  -3.574  27.948  0.00  0.00    +0.000 C 
ATOM      5  C   UNL     1      -0.661  -4.713  28.335  0.00  0.00    +0.000 C 
ATOM      6  C   UNL     1      -1.110  -5.539  29.347  0.00  0.00    +0.001 C 
ATOM      7  C   UNL     1      -2.278  -5.241  30.016  0.00  0.00    +0.016 C 
ATOM      8  C   UNL     1      -2.940  -5.886  31.050  0.00  0.00    +0.062 C 
ATOM      9  N   UNL     1      -4.028  -5.134  31.292  0.00  0.00    -0.311 N 
ATOM     10  H   UNL     1      -4.703  -5.336  31.979  0.00  0.00    +0.152 HD
ENDROOT
TORSDOF 0
