REMARK  Name = =
REMARK  1 active torsions:
REMARK  status: ('A' for Active; 'I' for Inactive)
REMARK    1  A    between atoms: C_1  and  C_25
REMARK                            x       y       z     vdW  Elec       q    Type
REMARK                         _______ _______ _______ _____ _____    ______ ____
ROOT
ATOM      1  C   UNL     1       0.252  -6.296  28.051  0.00  0.00    +0.044 C 
ATOM      2  C   UNL     1       0.665  -4.867  28.132  0.00  0.00    +0.009 C 
ATOM      3  C   UNL     1       1.464  -4.420  26.922  0.00  0.00    +0.005 C 
ATOM      4  C   UNL     1       2.717  -5.251  26.753  0.00  0.00    +0.026 C 
ATOM      5  C   UNL     1       2.412  -6.698  26.857  0.00  0.00    -0.026 C 
ATOM      6  C   UNL     1       1.273  -7.196  27.455  0.00  0.00    -0.022 C 
ATOM      7  C   UNL     1       1.039  -8.552  27.523  0.00  0.00    -0.001 C 
ATOM      8  C   UNL     1       1.932  -9.473  26.997  0.00  0.00    +0.042 C 
ATOM      9  C   UNL     1       3.072  -8.985  26.396  0.00  0.00    +0.042 C 
ATOM     10  C   UNL     1       3.301  -7.622  26.331  0.00  0.00    -0.001 C 
ATOM     11  C   UNL     1       4.006  -9.960  25.843  0.00  0.00    +0.196 C 
ATOM     12  O   UNL     1       5.056  -9.528  25.291  0.00  0.00    -0.287 OA
ATOM     13  C   UNL     1       3.758 -11.402  25.915  0.00  0.00    +0.042 C 
ATOM     14  C   UNL     1       2.610 -11.880  26.520  0.00  0.00    +0.042 C 
ATOM     15  C   UNL     1       2.362 -13.235  26.596  0.00  0.00    +0.003 C 
ATOM     16  C   UNL     1       3.267 -14.142  26.061  0.00  0.00    +0.000 C 
ATOM     17  C   UNL     1       4.419 -13.684  25.454  0.00  0.00    +0.000 C 
ATOM     18  C   UNL     1       4.651 -12.327  25.388  0.00  0.00    +0.003 C 
ATOM     19  C   UNL     1       1.660 -10.911  27.082  0.00  0.00    +0.196 C 
ATOM     20  O   UNL     1       0.605 -11.333  27.637  0.00  0.00    -0.287 OA
ENDROOT
BRANCH   1  25
ATOM     21  C   UNL     1      -1.780  -8.227  32.892  0.00  0.00    +0.062 C 
ATOM     22  C   UNL     1      -1.092  -7.681  31.831  0.00  0.00    +0.016 C 
ATOM     23  C   UNL     1       0.133  -7.046  31.758  0.00  0.00    +0.001 C 
ATOM     24  C   UNL     1       0.578  -6.594  30.538  0.00  0.00    -0.004 C 
ATOM     25  C   UNL     1      -0.172  -6.762  29.395  0.00  0.00    -0.018 C 
ATOM     26  C   UNL     1      -1.399  -7.407  29.512  0.00  0.00    -0.003 C 
ATOM     27  C   UNL     1      -1.884  -7.876  30.715  0.00  0.00    +0.016 C 
ATOM     28  C   UNL     1      -3.035  -8.534  31.102  0.00  0.00    +0.062 C 
ATOM     29  N   UNL     1      -2.939  -8.729  32.419  0.00  0.00    -0.311 N 
ATOM     30  H   UNL     1      -3.621  -9.178  32.970  0.00  0.00    +0.152 HD
ENDBRANCH   1  25
TORSDOF 1
