REMARK  Name = =
REMARK  1 active torsions:
REMARK  status: ('A' for Active; 'I' for Inactive)
REMARK    1  A    between atoms: C_3  and  C_7
REMARK                            x       y       z     vdW  Elec       q    Type
REMARK                         _______ _______ _______ _____ _____    ______ ____
ROOT
ATOM      1  N   UNL     1      -3.006  -3.763  31.159  0.00  0.00    -0.293 NA
ATOM      2  C   UNL     1      -2.030  -4.586  30.447  0.00  0.00    +0.103 C 
ATOM      3  C   UNL     1      -2.448  -6.007  30.563  0.00  0.00    +0.153 C 
ATOM      4  O   UNL     1      -2.564  -6.327  31.907  0.00  0.00    -0.349 OA
ATOM      5  C   UNL     1      -3.738  -5.758  32.384  0.00  0.00    +0.160 C 
ATOM      6  C   UNL     1      -4.153  -4.543  31.589  0.00  0.00    +0.101 C 
ATOM      7  H   UNL     1      -2.558  -3.354  31.979  0.00  0.00    +0.123 HD
ENDROOT
BRANCH   3   8
ATOM      8  C   UNL     1      -1.503  -6.891  29.848  0.00  0.00    +0.006 C 
ATOM      9  C   UNL     1      -0.476  -6.325  29.248  0.00  0.00    -0.002 C 
ATOM     10  C   UNL     1       0.528  -7.076  28.512  0.00  0.00    -0.000 C 
ATOM     11  C   UNL     1       0.417  -8.373  28.434  0.00  0.00    -0.000 C 
ATOM     12  C   UNL     1      -0.686  -9.105  29.063  0.00  0.00    -0.000 C 
ATOM     13  C   UNL     1      -1.699  -8.359  29.806  0.00  0.00    -0.002 C 
ENDBRANCH   3   8
TORSDOF 1
