REMARK  Name = =
REMARK  3 active torsions:
REMARK  status: ('A' for Active; 'I' for Inactive)
REMARK    1  A    between atoms: C_1  and  C_25
REMARK    2  A    between atoms: C_16  and  N_30
REMARK    3  A    between atoms: N_31  and  N_32
REMARK                            x       y       z     vdW  Elec       q    Type
REMARK                         _______ _______ _______ _____ _____    ______ ____
ROOT
ATOM      1  C   UNL     1      -0.969  -6.537  29.039  0.00  0.00    +0.066 C 
ATOM      2  C   UNL     1      -0.453  -7.135  27.784  0.00  0.00    -0.022 C 
ATOM      3  C   UNL     1       0.426  -6.316  26.939  0.00  0.00    -0.025 C 
ATOM      4  C   UNL     1       0.499  -4.857  27.219  0.00  0.00    +0.052 C 
ATOM      5  C   UNL     1      -0.586  -4.331  28.058  0.00  0.00    -0.021 C 
ATOM      6  C   UNL     1      -1.315  -5.096  28.942  0.00  0.00    -0.018 C 
ATOM      7  C   UNL     1      -2.314  -4.496  29.679  0.00  0.00    -0.001 C 
ATOM      8  C   UNL     1      -2.615  -3.147  29.567  0.00  0.00    +0.042 C 
ATOM      9  C   UNL     1      -1.888  -2.380  28.686  0.00  0.00    +0.042 C 
ATOM     10  C   UNL     1      -0.890  -2.980  27.947  0.00  0.00    -0.001 C 
ATOM     11  C   UNL     1      -2.213  -0.961  28.575  0.00  0.00    +0.196 C 
ATOM     12  O   UNL     1      -1.538  -0.274  27.764  0.00  0.00    -0.287 OA
ATOM     13  C   UNL     1      -3.280  -0.348  29.372  0.00  0.00    +0.042 C 
ATOM     14  C   UNL     1      -4.013  -1.110  30.259  0.00  0.00    +0.044 C 
ATOM     15  C   UNL     1      -5.020  -0.545  31.016  0.00  0.00    +0.024 C 
ATOM     16  C   UNL     1      -5.311   0.795  30.896  0.00  0.00    +0.104 C 
ATOM     17  C   UNL     1      -4.590   1.556  30.022  0.00  0.00    +0.021 C 
ATOM     18  C   UNL     1      -3.576   1.002  29.257  0.00  0.00    +0.005 C 
ATOM     19  C   UNL     1      -3.677  -2.529  30.360  0.00  0.00    +0.196 C 
ATOM     20  O   UNL     1      -4.339  -3.233  31.164  0.00  0.00    -0.287 OA
ENDROOT
BRANCH   1  25
ATOM     21  C   UNL     1       1.939  -7.764  33.770  0.00  0.00    +0.062 C 
ATOM     22  C   UNL     1       1.414  -7.367  32.541  0.00  0.00    +0.016 C 
ATOM     23  C   UNL     1       1.936  -6.687  31.469  0.00  0.00    +0.001 C 
ATOM     24  C   UNL     1       1.160  -6.422  30.340  0.00  0.00    -0.004 C 
ATOM     25  C   UNL     1      -0.153  -6.827  30.248  0.00  0.00    -0.014 C 
ATOM     26  C   UNL     1      -0.668  -7.517  31.346  0.00  0.00    -0.002 C 
ATOM     27  C   UNL     1       0.099  -7.776  32.459  0.00  0.00    +0.016 C 
ATOM     28  C   UNL     1      -0.172  -8.422  33.640  0.00  0.00    +0.062 C 
ATOM     29  N   UNL     1       0.945  -8.408  34.421  0.00  0.00    -0.311 N 
ATOM     30  H   UNL     1       1.017  -8.805  35.319  0.00  0.00    +0.152 HD
ENDBRANCH   1  25
BRANCH  16  31
ATOM     31  N   UNL     1      -6.340   1.404  31.660  0.00  0.00    -0.133 NA
ATOM     32  N   UNL     1      -7.448   1.787  31.165  0.00  0.00    -0.084 NA
BRANCH  32  33
ATOM     33  N   UNL     1      -8.424   2.386  31.992  0.00  0.00    -0.264 N 
ATOM     34  H   UNL     1      -9.281   2.682  31.608  0.00  0.00    +0.166 HD
ATOM     35  H   UNL     1      -8.248   2.508  32.953  0.00  0.00    +0.166 HD
ENDBRANCH  32  33
ENDBRANCH  16  31
TORSDOF 3
