REMARK  Name = =
REMARK  4 active torsions:
REMARK  status: ('A' for Active; 'I' for Inactive)
REMARK    1  A    between atoms: C_1  and  C_25
REMARK    2  A    between atoms: C_16  and  N_38
REMARK    3  A    between atoms: C_28  and  N_30
REMARK    4  A    between atoms: N_39  and  N_40
REMARK                            x       y       z     vdW  Elec       q    Type
REMARK                         _______ _______ _______ _____ _____    ______ ____
ROOT
ATOM      1  C   UNL     1       3.053  -0.118  23.550  0.00  0.00    +0.066 C 
ATOM      2  C   UNL     1       4.361   0.262  22.946  0.00  0.00    -0.022 C 
ATOM      3  C   UNL     1       4.824  -0.515  21.769  0.00  0.00    -0.025 C 
ATOM      4  C   UNL     1       3.884  -1.581  21.280  0.00  0.00    +0.052 C 
ATOM      5  C   UNL     1       2.460  -1.108  21.387  0.00  0.00    -0.021 C 
ATOM      6  C   UNL     1       2.072  -0.393  22.485  0.00  0.00    -0.018 C 
ATOM      7  C   UNL     1       0.747   0.055  22.574  0.00  0.00    -0.001 C 
ATOM      8  C   UNL     1      -0.187  -0.197  21.595  0.00  0.00    +0.042 C 
ATOM      9  C   UNL     1       0.222  -0.922  20.490  0.00  0.00    +0.042 C 
ATOM     10  C   UNL     1       1.534  -1.369  20.394  0.00  0.00    -0.001 C 
ATOM     11  C   UNL     1      -0.766  -1.192  19.446  0.00  0.00    +0.196 C 
ATOM     12  O   UNL     1      -0.400  -1.852  18.438  0.00  0.00    -0.287 OA
ATOM     13  C   UNL     1      -2.150  -0.716  19.549  0.00  0.00    +0.042 C 
ATOM     14  C   UNL     1      -2.560   0.007  20.649  0.00  0.00    +0.044 C 
ATOM     15  C   UNL     1      -3.873   0.453  20.740  0.00  0.00    +0.024 C 
ATOM     16  C   UNL     1      -4.813   0.200  19.755  0.00  0.00    +0.104 C 
ATOM     17  C   UNL     1      -4.391  -0.526  18.658  0.00  0.00    +0.021 C 
ATOM     18  C   UNL     1      -3.088  -0.969  18.565  0.00  0.00    +0.005 C 
ATOM     19  C   UNL     1      -1.570   0.272  21.687  0.00  0.00    +0.196 C 
ATOM     20  O   UNL     1      -1.939   0.931  22.692  0.00  0.00    -0.287 OA
ENDROOT
BRANCH   1  25
ATOM     21  C   UNL     1       3.921  -4.563  26.852  0.00  0.00    +0.063 C 
ATOM     22  C   UNL     1       3.555  -3.376  26.266  0.00  0.00    +0.017 C 
ATOM     23  C   UNL     1       2.810  -2.278  26.630  0.00  0.00    +0.001 C 
ATOM     24  C   UNL     1       2.629  -1.217  25.779  0.00  0.00    -0.004 C 
ATOM     25  C   UNL     1       3.192  -1.230  24.537  0.00  0.00    -0.014 C 
ATOM     26  C   UNL     1       3.942  -2.320  24.148  0.00  0.00    -0.001 C 
ATOM     27  C   UNL     1       4.118  -3.380  25.009  0.00  0.00    +0.029 C 
ATOM     28  C   UNL     1       4.829  -4.567  24.821  0.00  0.00    +0.114 C 
ATOM     29  N   UNL     1       4.668  -5.245  25.987  0.00  0.00    -0.300 N 
ATOM     30  H   UNL     1       5.056  -6.131  26.170  0.00  0.00    +0.153 HD
BRANCH  28  31
ATOM     31  N   UNL     1       5.551  -4.964  23.672  0.00  0.00    -0.176 N 
ATOM     32  C   UNL     1       6.859  -5.258  23.671  0.00  0.00    +0.318 C 
ATOM     33  O   UNL     1       7.522  -5.185  24.737  0.00  0.00    -0.251 OA
ATOM     34  N   UNL     1       7.523  -5.638  22.557  0.00  0.00    -0.266 N 
ATOM     35  C   UNL     1       6.885  -5.740  21.379  0.00  0.00    +0.070 C 
ATOM     36  C   UNL     1       5.533  -5.446  21.333  0.00  0.00    +0.075 C 
ATOM     37  C   UNL     1       4.905  -5.062  22.500  0.00  0.00    +0.262 C 
ATOM     38  O   UNL     1       3.659  -4.801  22.415  0.00  0.00    -0.269 OA
ATOM     39  H   UNL     1       8.485  -5.842  22.609  0.00  0.00    +0.156 HD
ENDBRANCH  28  31
ENDBRANCH   1  25
BRANCH  16  40
ATOM     40  N   UNL     1      -6.165   0.650  19.835  0.00  0.00    -0.133 NA
ATOM     41  N   UNL     1      -6.490   1.436  20.799  0.00  0.00    -0.084 NA
BRANCH  41  42
ATOM     42  N   UNL     1      -7.778   1.939  20.980  0.00  0.00    -0.264 N 
ATOM     43  H   UNL     1      -7.971   2.538  21.737  0.00  0.00    +0.166 HD
ATOM     44  H   UNL     1      -8.495   1.695  20.351  0.00  0.00    +0.166 HD
ENDBRANCH  41  42
ENDBRANCH  16  40
TORSDOF 4
