REMARK  Name = =
REMARK  5 active torsions:
REMARK  status: ('A' for Active; 'I' for Inactive)
REMARK    1  A    between atoms: C_1  and  C_17
REMARK    2  A    between atoms: C_4  and  C_7
REMARK    3  A    between atoms: C_16  and  N_21
REMARK    4  A    between atoms: N_21  and  O_25
REMARK    5  A    between atoms: O_25  and  C_26
REMARK                            x       y       z     vdW  Elec       q    Type
REMARK                         _______ _______ _______ _____ _____    ______ ____
ROOT
ATOM      1  C   UNL     1      -2.124  -5.364  30.888  0.00  0.00    +0.008 C 
ATOM      2  C   UNL     1      -3.183  -5.607  31.618  0.00  0.00    -0.002 C 
ATOM      3  C   UNL     1      -4.246  -4.597  31.799  0.00  0.00    -0.000 C 
ATOM      4  C   UNL     1      -4.210  -3.399  31.248  0.00  0.00    +0.004 C 
ATOM      5  C   UNL     1      -3.063  -3.076  30.400  0.00  0.00    -0.000 C 
ATOM      6  C   UNL     1      -1.971  -4.060  30.264  0.00  0.00    -0.002 C 
ENDROOT
BRANCH   4   7
ATOM      7  C   UNL     1      -5.309  -2.463  31.483  0.00  0.00    +0.050 C 
ATOM      8  C   UNL     1      -5.189  -1.140  31.189  0.00  0.00    +0.130 C 
ATOM      9  N   UNL     1      -6.276  -0.328  31.427  0.00  0.00    -0.199 NA
ATOM     10  C   UNL     1      -7.426  -0.766  31.925  0.00  0.00    +0.215 C 
ATOM     11  N   UNL     1      -7.523  -2.074  32.209  0.00  0.00    -0.212 NA
ATOM     12  C   UNL     1      -6.506  -2.929  32.005  0.00  0.00    +0.105 C 
ATOM     13  N   UNL     1      -8.546   0.082  32.169  0.00  0.00    -0.327 N 
ATOM     14  N   UNL     1      -4.039  -0.492  30.663  0.00  0.00    -0.343 N 
ATOM     15  H   UNL     1      -8.489   1.044  31.965  0.00  0.00    +0.145 HD
ATOM     16  H   UNL     1      -9.376  -0.294  32.541  0.00  0.00    +0.145 HD
ATOM     17  H   UNL     1      -4.058   0.476  30.485  0.00  0.00    +0.144 HD
ATOM     18  H   UNL     1      -3.224  -1.011  30.476  0.00  0.00    +0.144 HD
ENDBRANCH   4   7
BRANCH   1  21
ATOM     19  N   UNL     1      -0.340  -8.167  29.293  0.00  0.00    -0.276 NA
ATOM     20  C   UNL     1      -0.783  -6.756  29.283  0.00  0.00    +0.205 C 
ATOM     21  C   UNL     1      -1.059  -6.394  30.713  0.00  0.00    +0.174 C 
ATOM     22  O   UNL     1      -1.380  -7.522  31.482  0.00  0.00    -0.347 OA
ATOM     23  C   UNL     1      -2.115  -8.483  30.873  0.00  0.00    +0.160 C 
ATOM     24  C   UNL     1      -1.568  -8.917  29.525  0.00  0.00    +0.102 C 
ATOM     25  H   UNL     1       0.078  -8.423  28.398  0.00  0.00    +0.125 HD
BRANCH  20  26
ATOM     26  N   UNL     1       0.319  -6.042  28.677  0.00  0.00    -0.087 N 
ATOM     27  C   UNL     1       1.627  -5.928  29.186  0.00  0.00    +0.334 C 
ATOM     28  O   UNL     1       2.520  -5.266  28.536  0.00  0.00    -0.250 OA
ATOM     29  N   UNL     1       2.118  -6.483  30.394  0.00  0.00    -0.311 N 
ATOM     30  H   UNL     1       1.520  -7.010  30.972  0.00  0.00    +0.147 HD
ATOM     31  H   UNL     1       3.057  -6.341  30.655  0.00  0.00    +0.147 HD
BRANCH  26  32
ATOM     32  O   UNL     1       0.107  -5.399  27.448  0.00  0.00    -0.332 OA
BRANCH  32  33
ATOM     33  C   UNL     1       0.036  -4.021  27.438  0.00  0.00    +0.441 C 
ATOM     34  O   UNL     1       0.082  -3.369  28.511  0.00  0.00    -0.235 OA
ENDBRANCH  32  33
ENDBRANCH  26  32
ENDBRANCH  20  26
ENDBRANCH   1  21
TORSDOF 5
