REMARK  Name = =
REMARK  6 active torsions:
REMARK  status: ('A' for Active; 'I' for Inactive)
REMARK    1  A    between atoms: C_2  and  N_7
REMARK    2  A    between atoms: C_3  and  C_18
REMARK    3  A    between atoms: N_7  and  O_15
REMARK    4  A    between atoms: C_11  and  C_13
REMARK    5  A    between atoms: O_15  and  C_16
REMARK    6  A    between atoms: C_21  and  C_24
REMARK                            x       y       z     vdW  Elec       q    Type
REMARK                         _______ _______ _______ _____ _____    ______ ____
ROOT
ATOM      1  N   UNL     1      -1.476  -7.489  28.936  0.00  0.00    -0.310 N 
ATOM      2  C   UNL     1      -0.832  -6.292  29.327  0.00  0.00    +0.233 C 
ATOM      3  C   UNL     1      -0.890  -5.939  30.780  0.00  0.00    +0.229 C 
ATOM      4  O   UNL     1      -1.127  -6.955  31.636  0.00  0.00    -0.467 OA
ATOM      5  C   UNL     1      -0.912  -8.225  31.214  0.00  0.00    +0.188 C 
ATOM      6  C   UNL     1      -1.203  -8.555  29.817  0.00  0.00    +0.100 C 
ATOM      7  H   UNL     1      -2.049  -7.569  28.140  0.00  0.00    +0.149 HD
ENDROOT
BRANCH   2   8
ATOM      8  N   UNL     1       0.522  -6.201  28.835  0.00  0.00    -0.082 N 
ATOM      9  C   UNL     1       1.132  -5.111  28.218  0.00  0.00    +0.343 C 
ATOM     10  O   UNL     1       2.359  -5.232  27.858  0.00  0.00    -0.249 OA
ATOM     11  N   UNL     1       0.453  -3.885  27.978  0.00  0.00    -0.234 N 
ATOM     12  C   UNL     1       1.171  -2.807  27.330  0.00  0.00    +0.253 C 
ATOM     13  O   UNL     1       2.369  -3.003  27.007  0.00  0.00    -0.270 OA
ATOM     14  H   UNL     1      -0.487  -3.771  28.247  0.00  0.00    +0.159 HD
BRANCH  12  15
ATOM     15  C   UNL     1       0.506  -1.540  27.069  0.00  0.00    +0.058 C 
ATOM     16  C   UNL     1       1.169  -0.594  26.442  0.00  0.00    +0.005 C 
ENDBRANCH  12  15
BRANCH   8  17
ATOM     17  O   UNL     1       1.279  -7.362  29.021  0.00  0.00    -0.331 OA
BRANCH  17  18
ATOM     18  C   UNL     1       1.487  -8.193  27.939  0.00  0.00    +0.442 C 
ATOM     19  O   UNL     1       0.853  -7.963  26.880  0.00  0.00    -0.235 OA
ENDBRANCH  17  18
ENDBRANCH   8  17
ENDBRANCH   2   8
BRANCH   3  20
ATOM     20  C   UNL     1      -1.991  -4.906  31.018  0.00  0.00    +0.021 C 
ATOM     21  C   UNL     1      -1.694  -3.645  30.941  0.00  0.00    -0.001 C 
ATOM     22  C   UNL     1      -2.685  -2.573  31.155  0.00  0.00    -0.000 C 
ATOM     23  C   UNL     1      -3.913  -2.910  31.435  0.00  0.00    +0.004 C 
ATOM     24  C   UNL     1      -4.340  -4.320  31.543  0.00  0.00    -0.000 C 
ATOM     25  C   UNL     1      -3.347  -5.344  31.318  0.00  0.00    -0.001 C 
BRANCH  23  26
ATOM     26  C   UNL     1      -5.013  -1.927  31.670  0.00  0.00    +0.050 C 
ATOM     27  C   UNL     1      -5.029  -0.688  31.138  0.00  0.00    +0.130 C 
ATOM     28  N   UNL     1      -6.071   0.161  31.448  0.00  0.00    -0.199 NA
ATOM     29  C   UNL     1      -7.072  -0.186  32.256  0.00  0.00    +0.215 C 
ATOM     30  N   UNL     1      -7.053  -1.417  32.781  0.00  0.00    -0.212 NA
ATOM     31  C   UNL     1      -6.069  -2.291  32.520  0.00  0.00    +0.105 C 
ATOM     32  N   UNL     1      -8.149   0.658  32.592  0.00  0.00    -0.327 N 
ATOM     33  N   UNL     1      -4.063  -0.172  30.240  0.00  0.00    -0.343 N 
ATOM     34  H   UNL     1      -8.194   1.570  32.223  0.00  0.00    +0.145 HD
ATOM     35  H   UNL     1      -8.857   0.336  33.196  0.00  0.00    +0.145 HD
ATOM     36  H   UNL     1      -4.150   0.747  29.898  0.00  0.00    +0.144 HD
ATOM     37  H   UNL     1      -3.304  -0.732  29.958  0.00  0.00    +0.144 HD
ENDBRANCH  23  26
ENDBRANCH   3  20
TORSDOF 6
