MODEL 1
REMARK VINA RESULT:    -7.500      0.000      0.000
REMARK INTER + INTRA:          -9.440
REMARK INTER:                 -10.350
REMARK INTRA:                   0.909
REMARK UNBOUND:                 0.909
REMARK  Name = =
REMARK  7 active torsions:
REMARK  status: ('A' for Active; 'I' for Inactive)
REMARK    1  A    between atoms: C_1  and  C_8
REMARK    2  A    between atoms: C_2  and  C_28
REMARK    3  A    between atoms: C_7  and  C_17
REMARK    4  A    between atoms: N_13  and  C_18
REMARK    5  A    between atoms: C_28  and  C_33
REMARK    6  A    between atoms: C_33  and  N_39
REMARK    7  A    between atoms: N_39  and  O_42
REMARK                            x       y       z     vdW  Elec       q    Type
REMARK                         _______ _______ _______ _____ _____    ______ ____
ROOT
ATOM      1  C   UNL     1      60.507 164.047  36.988  0.00  0.00    +0.001 C 
ATOM      2  C   UNL     1      60.146 165.262  36.383  0.00  0.00    +0.033 C 
ATOM      3  C   UNL     1      59.295 165.161  35.331  0.00  0.00    +0.001 C 
ATOM      4  C   UNL     1      58.776 163.963  34.830  0.00  0.00    -0.000 C 
ATOM      5  C   UNL     1      59.143 162.802  35.432  0.00  0.00    -0.000 C 
ATOM      6  C   UNL     1      59.991 162.852  36.489  0.00  0.00    -0.000 C 
ENDROOT
BRANCH   1   8
ATOM      7  C   UNL     1      61.184 163.790  39.384  0.00  0.00    +0.038 C 
ATOM      8  C   UNL     1      61.432 163.914  38.077  0.00  0.00    +0.003 C 
ATOM      9  C   UNL     1      62.782 163.977  37.666  0.00  0.00    +0.000 C 
ATOM     10  C   UNL     1      63.832 163.922  38.534  0.00  0.00    +0.000 C 
ATOM     11  C   UNL     1      63.542 163.798  39.864  0.00  0.00    +0.000 C 
ATOM     12  C   UNL     1      62.268 163.731  40.308  0.00  0.00    +0.003 C 
BRANCH   7  17
ATOM     13  N   UNL     1      59.116 162.921  40.653  0.00  0.00    -0.174 N 
ATOM     14  N   UNL     1      57.975 163.534  41.052  0.00  0.00    -0.037 NA
ATOM     15  N   UNL     1      58.015 164.771  40.642  0.00  0.00    -0.022 NA
ATOM     16  N   UNL     1      59.122 164.978  39.999  0.00  0.00    -0.108 NA
ATOM     17  C   UNL     1      59.831 163.786  40.005  0.00  0.00    +0.190 A 
BRANCH  13  18
ATOM     18  C   UNL     1      59.426 161.573  41.006  0.00  0.00    +0.167 C 
ATOM     19  C   UNL     1      59.193 160.557  40.075  0.00  0.00    +0.039 C 
ATOM     20  C   UNL     1      59.445 159.227  40.431  0.00  0.00    +0.024 C 
ATOM     21  C   UNL     1      59.919 158.929  41.688  0.00  0.00    +0.022 C 
ATOM     22  C   UNL     1      60.132 159.967  42.565  0.00  0.00    +0.101 C 
ATOM     23  N   UNL     1      59.883 161.230  42.199  0.00  0.00    -0.225 NA
ATOM     24  C   UNL     1      59.200 158.271  39.476  0.00  0.00    +0.099 C 
ATOM     25  N   UNL     1      58.740 158.596  38.254  0.00  0.00    -0.242 NA
ATOM     26  C   UNL     1      58.495 159.872  37.902  0.00  0.00    +0.099 C 
ATOM     27  C   UNL     1      58.725 160.890  38.832  0.00  0.00    +0.024 C 
ENDBRANCH  13  18
ENDBRANCH   7  17
ENDBRANCH   1   8
BRANCH   2  28
ATOM     28  C   UNL     1      60.738 166.506  36.847  0.00  0.00    +0.250 C 
ATOM     29  O   UNL     1      59.800 167.520  36.891  0.00  0.00    -0.325 OA
ATOM     30  C   UNL     1      60.163 168.385  37.919  0.00  0.00    +0.177 C 
ATOM     31  C   UNL     1      61.007 167.554  38.822  0.00  0.00    +0.177 C 
ATOM     32  O   UNL     1      61.244 166.377  38.158  0.00  0.00    -0.325 OA
BRANCH  28  33
ATOM     33  C   UNL     1      61.878 167.065  35.998  0.00  0.00    +0.229 C 
ATOM     34  O   UNL     1      62.086 165.981  35.080  0.00  0.00    -0.335 OA
ATOM     35  C   UNL     1      63.084 166.187  34.194  0.00  0.00    +0.144 C 
ATOM     36  C   UNL     1      64.406 166.294  34.866  0.00  0.00    +0.032 C 
ATOM     37  C   UNL     1      64.411 167.038  36.144  0.00  0.00    +0.007 C 
ATOM     38  C   UNL     1      63.080 167.199  36.825  0.00  0.00    +0.054 C 
BRANCH  33  39
ATOM     39  N   UNL     1      61.462 168.146  35.175  0.00  0.00    -0.137 N 
ATOM     40  C   UNL     1      60.513 168.105  34.127  0.00  0.00    +0.329 C 
ATOM     41  O   UNL     1      60.208 169.133  33.477  0.00  0.00    -0.263 OA
BRANCH  39  42
ATOM     42  O   UNL     1      62.035 169.377  35.488  0.00  0.00    -0.289 OA
ATOM     43  H   UNL     1      61.682 170.059  34.895  0.00  0.00    +0.242 HD
ENDBRANCH  39  42
ENDBRANCH  33  39
ENDBRANCH  28  33
ENDBRANCH   2  28
TORSDOF 7
ENDMDL
