REMARK  Name = =
REMARK  7 active torsions:
REMARK  status: ('A' for Active; 'I' for Inactive)
REMARK    1  A    between atoms: C_1  and  C_8
REMARK    2  A    between atoms: C_2  and  C_28
REMARK    3  A    between atoms: C_7  and  C_17
REMARK    4  A    between atoms: N_13  and  C_18
REMARK    5  A    between atoms: C_28  and  C_33
REMARK    6  A    between atoms: C_33  and  N_39
REMARK    7  A    between atoms: N_39  and  O_42
REMARK                            x       y       z     vdW  Elec       q    Type
REMARK                         _______ _______ _______ _____ _____    ______ ____
ROOT
ATOM      1  C   UNL     1      50.776 157.399  29.577  0.00  0.00    +0.001 C 
ATOM      2  C   UNL     1      49.901 158.198  30.331  0.00  0.00    +0.033 C 
ATOM      3  C   UNL     1      48.644 157.709  30.478  0.00  0.00    +0.001 C 
ATOM      4  C   UNL     1      48.183 156.503  29.942  0.00  0.00    -0.000 C 
ATOM      5  C   UNL     1      49.049 155.750  29.214  0.00  0.00    -0.000 C 
ATOM      6  C   UNL     1      50.318 156.196  29.041  0.00  0.00    -0.000 C 
ENDROOT
BRANCH   1   8
ATOM      7  C   UNL     1      53.135 156.950  28.872  0.00  0.00    +0.038 C 
ATOM      8  C   UNL     1      52.130 157.744  29.251  0.00  0.00    +0.003 C 
ATOM      9  C   UNL     1      52.405 159.120  29.417  0.00  0.00    +0.000 C 
ATOM     10  C   UNL     1      53.637 159.667  29.213  0.00  0.00    +0.000 C 
ATOM     11  C   UNL     1      54.643 158.825  28.828  0.00  0.00    +0.000 C 
ATOM     12  C   UNL     1      54.431 157.502  28.654  0.00  0.00    +0.003 C 
BRANCH   7  17
ATOM     13  N   UNL     1      52.965 154.647  27.727  0.00  0.00    -0.174 N 
ATOM     14  N   UNL     1      53.011 153.386  28.219  0.00  0.00    -0.037 NA
ATOM     15  N   UNL     1      53.130 153.461  29.515  0.00  0.00    -0.022 NA
ATOM     16  N   UNL     1      53.159 154.706  29.876  0.00  0.00    -0.108 NA
ATOM     17  C   UNL     1      53.052 155.471  28.723  0.00  0.00    +0.190 A 
BRANCH  13  18
ATOM     18  C   UNL     1      52.914 154.922  26.327  0.00  0.00    +0.167 C 
ATOM     19  C   UNL     1      53.703 154.163  25.457  0.00  0.00    +0.039 C 
ATOM     20  C   UNL     1      53.699 154.459  24.089  0.00  0.00    +0.024 C 
ATOM     21  C   UNL     1      52.922 155.489  23.611  0.00  0.00    +0.022 C 
ATOM     22  C   UNL     1      52.164 156.203  24.509  0.00  0.00    +0.101 C 
ATOM     23  N   UNL     1      52.186 155.899  25.812  0.00  0.00    -0.225 NA
ATOM     24  C   UNL     1      54.492 153.680  23.283  0.00  0.00    +0.099 C 
ATOM     25  N   UNL     1      55.237 152.677  23.782  0.00  0.00    -0.242 NA
ATOM     26  C   UNL     1      55.247 152.384  25.096  0.00  0.00    +0.099 C 
ATOM     27  C   UNL     1      54.461 153.143  25.968  0.00  0.00    +0.024 C 
ENDBRANCH  13  18
ENDBRANCH   7  17
ENDBRANCH   1   8
BRANCH   2  28
ATOM     28  C   UNL     1      50.346 159.489  30.829  0.00  0.00    +0.250 C 
ATOM     29  O   UNL     1      51.440 159.353  31.662  0.00  0.00    -0.325 OA
ATOM     30  C   UNL     1      52.211 160.505  31.536  0.00  0.00    +0.177 C 
ATOM     31  C   UNL     1      51.837 161.058  30.205  0.00  0.00    +0.177 C 
ATOM     32  O   UNL     1      50.754 160.334  29.774  0.00  0.00    -0.325 OA
BRANCH  28  33
ATOM     33  C   UNL     1      49.328 160.281  31.646  0.00  0.00    +0.229 C 
ATOM     34  O   UNL     1      49.970 161.564  31.705  0.00  0.00    -0.335 OA
ATOM     35  C   UNL     1      49.290 162.494  32.409  0.00  0.00    +0.144 C 
ATOM     36  C   UNL     1      49.178 162.127  33.846  0.00  0.00    +0.032 C 
ATOM     37  C   UNL     1      48.934 160.694  34.118  0.00  0.00    +0.007 C 
ATOM     38  C   UNL     1      49.267 159.739  33.006  0.00  0.00    +0.054 C 
BRANCH  33  39
ATOM     39  N   UNL     1      48.126 160.524  30.927  0.00  0.00    -0.137 N 
ATOM     40  C   UNL     1      46.815 160.592  31.454  0.00  0.00    +0.329 C 
ATOM     41  O   UNL     1      45.826 160.834  30.723  0.00  0.00    -0.263 OA
BRANCH  39  42
ATOM     42  O   UNL     1      48.295 160.762  29.565  0.00  0.00    -0.289 OA
ATOM     43  H   UNL     1      49.235 160.685  29.337  0.00  0.00    +0.242 HD
ENDBRANCH  39  42
ENDBRANCH  33  39
ENDBRANCH  28  33
ENDBRANCH   2  28
TORSDOF 7
