REMARK  Name = =
REMARK  0 active torsions:
REMARK  status: ('A' for Active; 'I' for Inactive)
REMARK                            x       y       z     vdW  Elec       q    Type
REMARK                         _______ _______ _______ _____ _____    ______ ____
ROOT
ATOM      1  N   UNL     1      52.248 156.173  29.534  0.00  0.00    -0.239 N 
ATOM      2  C   UNL     1      52.802 156.864  28.416  0.00  0.00    +0.312 C 
ATOM      3  O   UNL     1      53.200 158.050  28.525  0.00  0.00    -0.252 OA
ATOM      4  N   UNL     1      52.875 156.137  27.189  0.00  0.00    -0.239 N 
ATOM      5  C   UNL     1      52.410 154.817  27.151  0.00  0.00    +0.239 C 
ATOM      6  O   UNL     1      52.030 154.305  26.062  0.00  0.00    -0.274 OA
ATOM      7  C   UNL     1      52.347 153.986  28.371  0.00  0.00    +0.171 C 
ATOM      8  C   UNL     1      51.785 154.830  29.463  0.00  0.00    +0.239 C 
ATOM      9  O   UNL     1      50.941 154.355  30.267  0.00  0.00    -0.274 OA
ATOM     10  H   UNL     1      52.183 156.647  30.394  0.00  0.00    +0.159 HD
ATOM     11  H   UNL     1      53.247 156.558  26.381  0.00  0.00    +0.159 HD
ENDROOT
TORSDOF 0
