REMARK  Name = =
REMARK  1 active torsions:
REMARK  status: ('A' for Active; 'I' for Inactive)
REMARK    1  A    between atoms: N_1  and  C_14
REMARK                            x       y       z     vdW  Elec       q    Type
REMARK                         _______ _______ _______ _____ _____    ______ ____
ROOT
ATOM      1  N   UNL     1      52.699 154.316  26.666  0.00  0.00    -0.202 N 
ATOM      2  C   UNL     1      52.868 155.576  26.026  0.00  0.00    +0.316 C 
ATOM      3  O   UNL     1      52.954 155.691  24.778  0.00  0.00    -0.252 OA
ATOM      4  N   UNL     1      52.948 156.792  26.781  0.00  0.00    -0.239 N 
ATOM      5  C   UNL     1      52.860 156.745  28.176  0.00  0.00    +0.239 C 
ATOM      6  O   UNL     1      53.243 157.719  28.891  0.00  0.00    -0.274 OA
ATOM      7  C   UNL     1      52.315 155.556  28.872  0.00  0.00    +0.171 C 
ATOM      8  C   UNL     1      52.617 154.344  28.087  0.00  0.00    +0.243 C 
ATOM      9  O   UNL     1      52.812 153.276  28.723  0.00  0.00    -0.274 OA
ATOM     10  H   UNL     1      53.064 157.654  26.321  0.00  0.00    +0.159 HD
ENDROOT
BRANCH   1  15
ATOM     11  N   UNL     1      52.508 151.913  26.642  0.00  0.00    -0.282 NA
ATOM     12  C   UNL     1      52.800 150.915  25.624  0.00  0.00    +0.070 C 
ATOM     13  C   UNL     1      54.129 151.456  25.091  0.00  0.00    +0.020 C 
ATOM     14  C   UNL     1      53.819 152.933  24.975  0.00  0.00    +0.038 C 
ATOM     15  C   UNL     1      52.623 153.133  25.884  0.00  0.00    +0.141 C 
ATOM     16  H   UNL     1      53.187 151.880  27.402  0.00  0.00    +0.125 HD
ENDBRANCH   1  15
TORSDOF 1
