REMARK  Name = =
REMARK  2 active torsions:
REMARK  status: ('A' for Active; 'I' for Inactive)
REMARK    1  A    between atoms: N_1  and  C_18
REMARK    2  A    between atoms: C_5  and  N_6
REMARK                            x       y       z     vdW  Elec       q    Type
REMARK                         _______ _______ _______ _____ _____    ______ ____
ROOT
ATOM      1  N   UNL     1      52.947 154.706  24.951  0.00  0.00    -0.246 NA
ATOM      2  C   UNL     1      53.297 156.091  24.787  0.00  0.00    +0.075 C 
ATOM      3  C   UNL     1      53.311 156.739  26.135  0.00  0.00    +0.021 C 
ATOM      4  C   UNL     1      53.247 155.522  27.053  0.00  0.00    +0.039 C 
ATOM      5  C   UNL     1      52.375 154.631  26.246  0.00  0.00    +0.146 C 
ENDROOT
BRANCH   5   6
ATOM      6  N   UNL     1      52.117 153.349  26.792  0.00  0.00    -0.201 N 
ATOM      7  C   UNL     1      51.583 153.269  28.129  0.00  0.00    +0.316 C 
ATOM      8  O   UNL     1      51.328 154.304  28.800  0.00  0.00    -0.252 OA
ATOM      9  N   UNL     1      51.317 152.019  28.758  0.00  0.00    -0.239 N 
ATOM     10  C   UNL     1      51.572 150.822  28.080  0.00  0.00    +0.239 C 
ATOM     11  O   UNL     1      51.689 149.753  28.730  0.00  0.00    -0.274 OA
ATOM     12  C   UNL     1      51.701 150.847  26.590  0.00  0.00    +0.171 C 
ATOM     13  C   UNL     1      52.361 152.102  26.151  0.00  0.00    +0.243 C 
ATOM     14  O   UNL     1      53.154 152.049  25.190  0.00  0.00    -0.274 OA
ATOM     15  H   UNL     1      50.953 151.997  29.672  0.00  0.00    +0.159 HD
ENDBRANCH   5   6
BRANCH   1  19
ATOM     16  N   UNL     1      55.197 153.863  25.457  0.00  0.00    -0.286 NA
ATOM     17  C   UNL     1      56.123 154.340  24.435  0.00  0.00    +0.072 C 
ATOM     18  C   UNL     1      54.916 154.573  23.564  0.00  0.00    +0.050 C 
ATOM     19  C   UNL     1      54.026 153.867  24.609  0.00  0.00    +0.118 C 
ATOM     20  H   UNL     1      55.115 154.505  26.246  0.00  0.00    +0.124 HD
ENDBRANCH   1  19
TORSDOF 2
