REMARK  Name = =
REMARK  2 active torsions:
REMARK  status: ('A' for Active; 'I' for Inactive)
REMARK    1  A    between atoms: C_1  and  C_4
REMARK    2  A    between atoms: N_3  and  O_6
REMARK                            x       y       z     vdW  Elec       q    Type
REMARK                         _______ _______ _______ _____ _____    ______ ____
ROOT
ATOM      1  C   UNL     1     -11.692 -42.391  28.289  0.00  0.00    +0.310 C 
ATOM      2  O   UNL     1     -10.488 -42.178  27.949  0.00  0.00    -0.264 OA
ATOM      3  N   UNL     1     -11.987 -42.343  29.670  0.00  0.00    -0.191 N 
ATOM      4  H   UNL     1     -12.916 -42.506  29.954  0.00  0.00    +0.183 HD
ENDROOT
BRANCH   1   5
ATOM      5  C   UNL     1     -12.673 -42.665  27.257  0.00  0.00    +0.294 C 
ATOM      6  O   UNL     1     -13.824 -42.167  27.307  0.00  0.00    -0.278 OA
ENDBRANCH   1   5
BRANCH   3   7
ATOM      7  O   UNL     1     -11.062 -42.085  30.624  0.00  0.00    -0.295 OA
ATOM      8  H   UNL     1     -10.198 -41.945  30.207  0.00  0.00    +0.241 HD
ENDBRANCH   3   7
TORSDOF 2
