MODEL 1
REMARK VINA RESULT:   -11.470      0.000      0.000
REMARK INTER + INTRA:         -13.194
REMARK INTER:                 -13.482
REMARK INTRA:                   0.287
REMARK UNBOUND:                 0.287
REMARK  Name = =
REMARK  3 active torsions:
REMARK  status: ('A' for Active; 'I' for Inactive)
REMARK    1  A    between atoms: N_1  and  C_35
REMARK    2  A    between atoms: C_31  and  C_38
REMARK    3  A    between atoms: C_39  and  C_42
REMARK                            x       y       z     vdW  Elec       q    Type
REMARK                         _______ _______ _______ _____ _____    ______ ____
ROOT
ATOM      1  N   UNL     1       1.401  -3.525  27.974  0.00  0.00    -0.271 N 
ATOM      2  C   UNL     1       2.557  -2.833  27.451  0.00  0.00    +0.179 C 
ATOM      3  C   UNL     1       2.398  -1.381  27.649  0.00  0.00    +0.243 C 
ATOM      4  O   UNL     1       2.424  -0.933  28.821  0.00  0.00    -0.273 OA
ATOM      5  N   UNL     1       2.216  -0.466  26.583  0.00  0.00    -0.303 N 
ATOM      6  C   UNL     1       1.522  -0.866  25.378  0.00  0.00    +0.090 C 
ATOM      7  C   UNL     1       2.146  -0.159  24.180  0.00  0.00    +0.031 C 
ATOM      8  C   UNL     1       3.069  -1.083  23.404  0.00  0.00    +0.087 C 
ATOM      9  C   UNL     1       4.430  -0.498  23.490  0.00  0.00    +0.223 C 
ATOM     10  O   UNL     1       4.559   0.695  23.116  0.00  0.00    -0.275 OA
ATOM     11  N   UNL     1       5.577  -1.205  23.963  0.00  0.00    -0.297 N 
ATOM     12  C   UNL     1       5.847  -2.590  23.648  0.00  0.00    +0.176 C 
ATOM     13  C   UNL     1       5.512  -2.946  22.273  0.00  0.00    +0.243 C 
ATOM     14  O   UNL     1       5.121  -2.070  21.473  0.00  0.00    -0.273 OA
ATOM     15  N   UNL     1       5.625  -4.282  21.826  0.00  0.00    -0.295 N 
ATOM     16  C   UNL     1       6.449  -5.276  22.506  0.00  0.00    +0.176 C 
ATOM     17  C   UNL     1       5.765  -6.595  22.444  0.00  0.00    +0.243 C 
ATOM     18  O   UNL     1       5.272  -6.913  21.324  0.00  0.00    -0.273 OA
ATOM     19  N   UNL     1       5.646  -7.482  23.547  0.00  0.00    -0.295 N 
ATOM     20  C   UNL     1       6.700  -7.748  24.498  0.00  0.00    +0.176 C 
ATOM     21  C   UNL     1       6.548  -6.997  25.770  0.00  0.00    +0.243 C 
ATOM     22  O   UNL     1       7.293  -6.005  25.979  0.00  0.00    -0.273 OA
ATOM     23  N   UNL     1       5.607  -7.328  26.781  0.00  0.00    -0.295 N 
ATOM     24  C   UNL     1       4.296  -7.886  26.417  0.00  0.00    +0.176 C 
ATOM     25  C   UNL     1       3.446  -8.064  27.604  0.00  0.00    +0.243 C 
ATOM     26  O   UNL     1       3.503  -9.162  28.214  0.00  0.00    -0.273 OA
ATOM     27  N   UNL     1       2.555  -7.074  28.113  0.00  0.00    -0.295 N 
ATOM     28  C   UNL     1       2.790  -5.658  27.991  0.00  0.00    +0.176 C 
ATOM     29  C   UNL     1       1.530  -4.929  28.278  0.00  0.00    +0.246 C 
ATOM     30  O   UNL     1       0.545  -5.515  28.793  0.00  0.00    -0.273 OA
ATOM     31  H   UNL     1       2.565   0.451  26.664  0.00  0.00    +0.149 HD
ATOM     32  H   UNL     1       6.219  -0.724  24.533  0.00  0.00    +0.150 HD
ATOM     33  H   UNL     1       5.128  -4.554  21.021  0.00  0.00    +0.150 HD
ATOM     34  H   UNL     1       4.787  -7.946  23.673  0.00  0.00    +0.150 HD
ATOM     35  H   UNL     1       5.833  -7.184  27.729  0.00  0.00    +0.150 HD
ATOM     36  H   UNL     1       1.737  -7.374  28.571  0.00  0.00    +0.150 HD
ENDROOT
BRANCH   1  41
ATOM     37  C   UNL     1      -1.789  -3.183  29.673  0.00  0.00    -0.007 C 
ATOM     38  C   UNL     1      -2.641  -3.075  28.687  0.00  0.00    -0.031 C 
ATOM     39  C   UNL     1      -2.172  -2.672  27.338  0.00  0.00    +0.027 C 
ATOM     40  C   UNL     1      -0.814  -3.318  27.140  0.00  0.00    +0.025 C 
ATOM     41  C   UNL     1       0.174  -2.815  28.175  0.00  0.00    +0.080 C 
ATOM     42  C   UNL     1      -0.347  -2.931  29.565  0.00  0.00    +0.045 C 
BRANCH  37  44
ATOM     43  O   UNL     1      -3.285  -2.699  31.488  0.00  0.00    -0.447 OA
ATOM     44  C   UNL     1      -2.292  -3.596  31.039  0.00  0.00    +0.198 C 
ATOM     45  C   UNL     1      -3.373  -4.651  30.952  0.00  0.00    +0.151 C 
ATOM     46  C   UNL     1      -4.290  -3.672  31.561  0.00  0.00    +0.321 C 
ATOM     47  O   UNL     1      -5.457  -3.624  31.987  0.00  0.00    -0.250 OA
BRANCH  45  48
ATOM     48  C   UNL     1      -3.077  -5.832  31.859  0.00  0.00    +0.058 C 
ATOM     49  C   UNL     1      -4.192  -6.831  31.845  0.00  0.00    -0.021 C 
ATOM     50  C   UNL     1      -3.679  -7.996  31.040  0.00  0.00    -0.005 C 
ATOM     51  C   UNL     1      -2.239  -7.720  30.839  0.00  0.00    -0.005 C 
ATOM     52  C   UNL     1      -1.907  -6.534  31.287  0.00  0.00    -0.021 C 
ENDBRANCH  45  48
ENDBRANCH  37  44
ENDBRANCH   1  41
TORSDOF 3
ENDMDL
