MODEL 1
REMARK VINA RESULT:    -6.958      0.000      0.000
REMARK INTER + INTRA:         -11.745
REMARK INTER:                 -10.212
REMARK INTRA:                  -1.533
REMARK UNBOUND:                -1.533
REMARK  Name = =
REMARK  9 active torsions:
REMARK  status: ('A' for Active; 'I' for Inactive)
REMARK    1  A    between atoms: C_1  and  S_30
REMARK    2  A    between atoms: C_15  and  N_24
REMARK    3  A    between atoms: C_22  and  N_26
REMARK    4  A    between atoms: N_26  and  C_27
REMARK    5  A    between atoms: C_27  and  N_29
REMARK    6  A    between atoms: S_30  and  S_31
REMARK    7  A    between atoms: S_31  and  S_32
REMARK    8  A    between atoms: S_31  and  C_33
REMARK    9  A    between atoms: C_33  and  O_34
REMARK                            x       y       z     vdW  Elec       q    Type
REMARK                         _______ _______ _______ _____ _____    ______ ____
ROOT
ATOM      1  C   UNL     1       1.512  -6.085  29.606  0.00  0.00    +0.140 C 
ATOM      2  C   UNL     1       1.486  -6.749  31.032  0.00  0.00    +0.060 C 
ATOM      3  C   UNL     1       0.252  -6.326  31.740  0.00  0.00    +0.043 C 
ATOM      4  C   UNL     1       0.271  -6.520  30.294  0.00  0.00    +0.150 C 
ATOM      5  O   UNL     1      -0.575  -7.371  29.686  0.00  0.00    -0.462 OA
ATOM      6  C   UNL     1      -1.602  -7.100  28.818  0.00  0.00    +0.295 C 
ATOM      7  N   UNL     1      -2.157  -6.010  28.569  0.00  0.00    -0.138 NA
ATOM      8  N   UNL     1      -1.919  -4.791  29.068  0.00  0.00    -0.207 N 
ATOM      9  C   UNL     1      -0.544  -7.177  32.592  0.00  0.00    +0.008 C 
ATOM     10  C   UNL     1      -1.734  -6.473  33.182  0.00  0.00    +0.024 C 
ATOM     11  C   UNL     1      -2.862  -6.681  32.201  0.00  0.00    -0.027 C 
ATOM     12  C   UNL     1      -3.060  -7.959  31.875  0.00  0.00    -0.033 C 
ATOM     13  C   UNL     1      -2.169  -8.985  32.483  0.00  0.00    +0.025 C 
ATOM     14  C   UNL     1      -0.693  -8.595  32.332  0.00  0.00    +0.005 C 
ATOM     15  C   UNL     1      -3.668  -5.578  31.655  0.00  0.00    +0.123 C 
ATOM     16  C   UNL     1      -2.891  -4.350  31.299  0.00  0.00    +0.050 C 
ATOM     17  C   UNL     1      -2.893  -4.049  29.829  0.00  0.00    +0.096 C 
ATOM     18  C   UNL     1      -2.515  -2.584  29.615  0.00  0.00    +0.026 C 
ATOM     19  C   UNL     1      -1.231  -2.591  28.800  0.00  0.00    +0.054 C 
ATOM     20  C   UNL     1      -0.716  -4.044  28.905  0.00  0.00    +0.210 C 
ATOM     21  O   UNL     1       0.199  -4.125  29.916  0.00  0.00    -0.309 OA
ATOM     22  C   UNL     1       1.458  -4.553  29.599  0.00  0.00    +0.246 C 
ATOM     23  N   UNL     1       2.310  -4.178  30.752  0.00  0.00    -0.083 NA
ENDROOT
BRANCH  15  24
ATOM     24  N   UNL     1      -4.658  -5.236  32.646  0.00  0.00    -0.265 NA
ATOM     25  C   UNL     1      -4.712  -4.121  33.230  0.00  0.00    +0.114 C 
ENDBRANCH  15  24
BRANCH  22  26
ATOM     26  N   UNL     1       2.033  -4.049  28.399  0.00  0.00    -0.283 N 
ATOM     27  H   UNL     1       2.013  -4.660  27.628  0.00  0.00    +0.152 HD
BRANCH  26  28
ATOM     28  C   UNL     1       2.621  -2.800  28.171  0.00  0.00    +0.131 C 
ATOM     29  S   UNL     1       3.975  -2.573  27.300  0.00  0.00    -0.019 S 
BRANCH  28  30
ATOM     30  N   UNL     1       2.030  -1.630  28.731  0.00  0.00    -0.341 N 
ATOM     31  H   UNL     1       2.597  -0.868  28.989  0.00  0.00    +0.144 HD
ATOM     32  H   UNL     1       1.055  -1.584  28.860  0.00  0.00    +0.144 HD
ENDBRANCH  28  30
ENDBRANCH  26  28
ENDBRANCH  22  26
BRANCH   1  33
ATOM     33  S   UNL     1       2.462  -6.943  28.490  0.00  0.00    -0.085 S 
BRANCH  33  34
ATOM     34  S   UNL     1       1.780  -7.568  26.995  0.00  0.00    -0.120 S 
ATOM     35  H   UNL     1       0.565  -7.307  26.440  0.00  0.00    +0.106 HD
BRANCH  34  36
ATOM     36  S   UNL     1       2.863  -6.918  25.978  0.00  0.00    -0.120 S 
ATOM     37  H   UNL     1       2.224  -6.103  25.096  0.00  0.00    +0.113 HD
ENDBRANCH  34  36
BRANCH  34  38
ATOM     38  C   UNL     1       1.685  -9.202  27.388  0.00  0.00    +0.198 C 
BRANCH  38  39
ATOM     39  O   UNL     1       0.465  -9.810  27.496  0.00  0.00    -0.340 OA
ATOM     40  C   UNL     1       0.386 -11.057  26.977  0.00  0.00    +0.175 C 
ENDBRANCH  38  39
ENDBRANCH  34  38
ENDBRANCH  33  34
ENDBRANCH   1  33
TORSDOF 9
ENDMDL
