REMARK  Name = =
REMARK  3 active torsions:
REMARK  status: ('A' for Active; 'I' for Inactive)
REMARK    1  A    between atoms: N_1  and  C_35
REMARK    2  A    between atoms: C_31  and  C_38
REMARK    3  A    between atoms: C_39  and  C_42
REMARK                            x       y       z     vdW  Elec       q    Type
REMARK                         _______ _______ _______ _____ _____    ______ ____
ROOT
ATOM      1  N   UNL     1       0.137  -6.639  27.812  0.00  0.00    -0.271 N 
ATOM      2  C   UNL     1       0.442  -7.475  26.674  0.00  0.00    +0.179 C 
ATOM      3  C   UNL     1      -0.568  -8.542  26.556  0.00  0.00    +0.243 C 
ATOM      4  O   UNL     1      -1.741  -8.220  26.245  0.00  0.00    -0.273 OA
ATOM      5  N   UNL     1      -0.283  -9.911  26.777  0.00  0.00    -0.303 N 
ATOM      6  C   UNL     1       0.727 -10.309  27.734  0.00  0.00    +0.090 C 
ATOM      7  C   UNL     1       1.429 -11.566  27.232  0.00  0.00    +0.031 C 
ATOM      8  C   UNL     1       2.785 -11.245  26.628  0.00  0.00    +0.087 C 
ATOM      9  C   UNL     1       2.719 -11.633  25.197  0.00  0.00    +0.223 C 
ATOM     10  O   UNL     1       2.376 -12.816  24.946  0.00  0.00    -0.275 OA
ATOM     11  N   UNL     1       3.020 -10.753  24.114  0.00  0.00    -0.297 N 
ATOM     12  C   UNL     1       4.112  -9.806  24.135  0.00  0.00    +0.176 C 
ATOM     13  C   UNL     1       5.319 -10.329  24.768  0.00  0.00    +0.243 C 
ATOM     14  O   UNL     1       5.365 -11.517  25.150  0.00  0.00    -0.273 OA
ATOM     15  N   UNL     1       6.450  -9.503  24.956  0.00  0.00    -0.295 N 
ATOM     16  C   UNL     1       6.670  -8.277  24.196  0.00  0.00    +0.176 C 
ATOM     17  C   UNL     1       7.294  -7.262  25.085  0.00  0.00    +0.243 C 
ATOM     18  O   UNL     1       8.239  -7.671  25.818  0.00  0.00    -0.273 OA
ATOM     19  N   UNL     1       6.890  -5.901  25.144  0.00  0.00    -0.295 N 
ATOM     20  C   UNL     1       6.543  -5.102  23.992  0.00  0.00    +0.176 C 
ATOM     21  C   UNL     1       5.078  -4.972  23.786  0.00  0.00    +0.243 C 
ATOM     22  O   UNL     1       4.536  -5.635  22.864  0.00  0.00    -0.273 OA
ATOM     23  N   UNL     1       4.236  -4.138  24.569  0.00  0.00    -0.295 N 
ATOM     24  C   UNL     1       4.519  -3.933  25.997  0.00  0.00    +0.176 C 
ATOM     25  C   UNL     1       3.474  -3.118  26.635  0.00  0.00    +0.243 C 
ATOM     26  O   UNL     1       3.622  -1.869  26.647  0.00  0.00    -0.273 OA
ATOM     27  N   UNL     1       2.300  -3.648  27.245  0.00  0.00    -0.295 N 
ATOM     28  C   UNL     1       1.658  -4.862  26.809  0.00  0.00    +0.176 C 
ATOM     29  C   UNL     1       0.716  -5.319  27.860  0.00  0.00    +0.246 C 
ATOM     30  O   UNL     1       0.399  -4.569  28.817  0.00  0.00    -0.273 OA
ATOM     31  H   UNL     1      -0.777 -10.599  26.275  0.00  0.00    +0.149 HD
ATOM     32  H   UNL     1       2.454 -10.793  23.310  0.00  0.00    +0.150 HD
ATOM     33  H   UNL     1       7.119  -9.766  25.629  0.00  0.00    +0.150 HD
ATOM     34  H   UNL     1       6.843  -5.474  26.030  0.00  0.00    +0.150 HD
ATOM     35  H   UNL     1       3.460  -3.696  24.154  0.00  0.00    +0.150 HD
ATOM     36  H   UNL     1       1.907  -3.159  28.004  0.00  0.00    +0.150 HD
ENDROOT
BRANCH   1  41
ATOM     37  C   UNL     1      -1.738  -6.073  30.869  0.00  0.00    -0.007 C 
ATOM     38  C   UNL     1      -1.314  -7.025  31.659  0.00  0.00    -0.031 C 
ATOM     39  C   UNL     1      -0.658  -8.228  31.090  0.00  0.00    +0.027 C 
ATOM     40  C   UNL     1       0.169  -7.755  29.910  0.00  0.00    +0.025 C 
ATOM     41  C   UNL     1      -0.718  -7.130  28.850  0.00  0.00    +0.080 C 
ATOM     42  C   UNL     1      -1.622  -6.085  29.406  0.00  0.00    +0.045 C 
BRANCH  37  44
ATOM     43  O   UNL     1      -2.827  -3.973  30.458  0.00  0.00    -0.447 OA
ATOM     44  C   UNL     1      -2.403  -4.856  31.474  0.00  0.00    +0.198 C 
ATOM     45  C   UNL     1      -3.864  -5.101  31.784  0.00  0.00    +0.151 C 
ATOM     46  C   UNL     1      -4.183  -4.055  30.797  0.00  0.00    +0.321 C 
ATOM     47  O   UNL     1      -5.180  -3.444  30.373  0.00  0.00    -0.250 OA
BRANCH  45  48
ATOM     48  C   UNL     1      -4.208  -4.701  33.207  0.00  0.00    +0.058 C 
ATOM     49  C   UNL     1      -3.827  -3.280  33.487  0.00  0.00    -0.021 C 
ATOM     50  C   UNL     1      -5.123  -2.514  33.519  0.00  0.00    -0.005 C 
ATOM     51  C   UNL     1      -6.182  -3.548  33.497  0.00  0.00    -0.005 C 
ATOM     52  C   UNL     1      -5.682  -4.748  33.326  0.00  0.00    -0.021 C 
ENDBRANCH  45  48
ENDBRANCH  37  44
ENDBRANCH   1  41
TORSDOF 3
