REMARK  Name = =
REMARK  1 active torsions:
REMARK  status: ('A' for Active; 'I' for Inactive)
REMARK    1  A    between atoms: C_7  and  C_9
REMARK                            x       y       z     vdW  Elec       q    Type
REMARK                         _______ _______ _______ _____ _____    ______ ____
ROOT
ATOM      1  C   UNL     1      -3.976  -3.924  31.168  0.00  0.00    +0.004 C 
ATOM      2  C   UNL     1      -4.021  -3.780  29.679  0.00  0.00    +0.022 C 
ATOM      3  C   UNL     1      -2.653  -3.223  29.238  0.00  0.00    +0.094 C 
ATOM      4  N   UNL     1      -1.656  -4.183  29.598  0.00  0.00    -0.276 N 
ATOM      5  C   UNL     1      -2.203  -5.409  30.236  0.00  0.00    +0.094 C 
ATOM      6  C   UNL     1      -2.998  -5.051  31.471  0.00  0.00    +0.022 C 
ATOM      7  C   UNL     1      -0.272  -4.144  29.445  0.00  0.00    +0.249 C 
ATOM      8  O   UNL     1       0.316  -5.227  29.903  0.00  0.00    -0.270 OA
ENDROOT
BRANCH   7   9
ATOM      9  C   UNL     1       0.605  -3.146  28.884  0.00  0.00    +0.054 C 
ATOM     10  C   UNL     1       0.201  -1.912  28.458  0.00  0.00    +0.005 C 
ATOM     11  C   UNL     1       1.104  -0.973  27.916  0.00  0.00    +0.000 C 
ATOM     12  C   UNL     1       2.431  -1.318  27.815  0.00  0.00    +0.000 C 
ATOM     13  C   UNL     1       2.842  -2.561  28.244  0.00  0.00    +0.000 C 
ATOM     14  C   UNL     1       1.964  -3.478  28.772  0.00  0.00    +0.005 C 
ENDBRANCH   7   9
TORSDOF 1
