REMARK  Name = =
REMARK  4 active torsions:
REMARK  status: ('A' for Active; 'I' for Inactive)
REMARK    1  A    between atoms: C_1  and  N_15
REMARK    2  A    between atoms: C_7  and  C_9
REMARK    3  A    between atoms: N_15  and  N_16
REMARK    4  A    between atoms: C_17  and  O_19
REMARK                            x       y       z     vdW  Elec       q    Type
REMARK                         _______ _______ _______ _____ _____    ______ ____
ROOT
ATOM      1  C   UNL     1       0.783  -5.592  29.182  0.00  0.00    +0.075 C 
ATOM      2  C   UNL     1       1.938  -5.119  30.052  0.00  0.00    +0.039 C 
ATOM      3  C   UNL     1       3.123  -4.848  29.222  0.00  0.00    +0.095 C 
ATOM      4  N   UNL     1       2.853  -4.261  27.905  0.00  0.00    -0.276 N 
ATOM      5  C   UNL     1       1.537  -4.132  27.368  0.00  0.00    +0.095 C 
ATOM      6  C   UNL     1       0.407  -4.380  28.362  0.00  0.00    +0.039 C 
ATOM      7  C   UNL     1       3.983  -3.782  27.198  0.00  0.00    +0.249 C 
ATOM      8  O   UNL     1       5.120  -3.905  27.857  0.00  0.00    -0.270 OA
ENDROOT
BRANCH   7   9
ATOM      9  C   UNL     1       4.111  -3.189  25.900  0.00  0.00    +0.054 C 
ATOM     10  C   UNL     1       3.415  -3.487  24.761  0.00  0.00    +0.005 C 
ATOM     11  C   UNL     1       3.574  -2.825  23.538  0.00  0.00    +0.000 C 
ATOM     12  C   UNL     1       4.482  -1.806  23.456  0.00  0.00    +0.000 C 
ATOM     13  C   UNL     1       5.209  -1.467  24.574  0.00  0.00    +0.000 C 
ATOM     14  C   UNL     1       5.034  -2.130  25.756  0.00  0.00    +0.005 C 
ENDBRANCH   7   9
BRANCH   1  15
ATOM     15  N   UNL     1      -0.380  -5.884  30.012  0.00  0.00    -0.229 NA
ATOM     16  H   UNL     1      -0.779  -6.776  29.719  0.00  0.00    +0.145 HD
BRANCH  15  17
ATOM     17  N   UNL     1      -0.045  -5.962  31.369  0.00  0.00    -0.216 N 
ATOM     18  C   UNL     1      -0.328  -7.176  32.092  0.00  0.00    +0.412 C 
ATOM     19  O   UNL     1      -0.869  -8.114  31.435  0.00  0.00    -0.225 OA
ATOM     20  H   UNL     1       0.378  -5.198  31.823  0.00  0.00    +0.172 HD
BRANCH  18  21
ATOM     21  O   UNL     1      -0.045  -7.362  33.429  0.00  0.00    -0.465 OA
ATOM     22  H   UNL     1       0.355  -6.674  33.923  0.00  0.00    +0.297 HD
ENDBRANCH  18  21
ENDBRANCH  15  17
ENDBRANCH   1  15
TORSDOF 4
