REMARK  Name = =
REMARK  6 active torsions:
REMARK  status: ('A' for Active; 'I' for Inactive)
REMARK    1  A    between atoms: C_1  and  N_15
REMARK    2  A    between atoms: C_1  and  N_24
REMARK    3  A    between atoms: C_7  and  C_9
REMARK    4  A    between atoms: C_16  and  C_18
REMARK    5  A    between atoms: N_24  and  N_25
REMARK    6  A    between atoms: C_26  and  O_28
REMARK                            x       y       z     vdW  Elec       q    Type
REMARK                         _______ _______ _______ _____ _____    ______ ____
ROOT
ATOM      1  C   UNL     1       3.004  -5.204  25.386  0.00  0.00    +0.119 C 
ATOM      2  C   UNL     1       2.545  -6.592  25.739  0.00  0.00    +0.056 C 
ATOM      3  C   UNL     1       1.799  -6.593  27.088  0.00  0.00    +0.097 C 
ATOM      4  N   UNL     1       2.583  -6.024  28.126  0.00  0.00    -0.276 N 
ATOM      5  C   UNL     1       3.907  -5.535  27.629  0.00  0.00    +0.097 C 
ATOM      6  C   UNL     1       3.518  -4.455  26.608  0.00  0.00    +0.056 C 
ATOM      7  C   UNL     1       2.331  -5.852  29.468  0.00  0.00    +0.249 C 
ATOM      8  O   UNL     1       3.267  -5.278  30.204  0.00  0.00    -0.270 OA
ENDROOT
BRANCH   7   9
ATOM      9  C   UNL     1       1.164  -6.208  30.245  0.00  0.00    +0.054 C 
ATOM     10  C   UNL     1       1.297  -6.501  31.611  0.00  0.00    +0.005 C 
ATOM     11  C   UNL     1       0.232  -6.844  32.404  0.00  0.00    +0.000 C 
ATOM     12  C   UNL     1      -1.046  -6.922  31.897  0.00  0.00    +0.000 C 
ATOM     13  C   UNL     1      -1.190  -6.639  30.566  0.00  0.00    +0.000 C 
ATOM     14  C   UNL     1      -0.102  -6.287  29.754  0.00  0.00    +0.005 C 
ENDBRANCH   7   9
BRANCH   1  15
ATOM     15  N   UNL     1       3.990  -5.134  24.364  0.00  0.00    -0.291 N 
ATOM     16  C   UNL     1       3.893  -5.667  23.052  0.00  0.00    +0.248 C 
ATOM     17  O   UNL     1       2.837  -6.263  22.734  0.00  0.00    -0.270 OA
ATOM     18  H   UNL     1       4.827  -4.667  24.590  0.00  0.00    +0.151 HD
BRANCH  16  19
ATOM     19  C   UNL     1       4.935  -5.570  22.043  0.00  0.00    +0.073 C 
ATOM     20  C   UNL     1       6.260  -5.254  22.322  0.00  0.00    +0.103 C 
ATOM     21  N   UNL     1       7.193  -5.160  21.346  0.00  0.00    -0.242 NA
ATOM     22  C   UNL     1       6.885  -5.368  20.042  0.00  0.00    +0.099 C 
ATOM     23  C   UNL     1       5.579  -5.685  19.715  0.00  0.00    +0.021 C 
ATOM     24  C   UNL     1       4.638  -5.779  20.709  0.00  0.00    +0.008 C 
ENDBRANCH  16  19
ENDBRANCH   1  15
BRANCH   1  25
ATOM     25  N   UNL     1       1.825  -4.441  24.932  0.00  0.00    -0.214 NA
ATOM     26  H   UNL     1       1.083  -4.489  25.630  0.00  0.00    +0.147 HD
BRANCH  25  27
ATOM     27  N   UNL     1       2.253  -3.115  24.768  0.00  0.00    -0.214 N 
ATOM     28  C   UNL     1       2.009  -2.471  23.523  0.00  0.00    +0.412 C 
ATOM     29  O   UNL     1       1.422  -3.112  22.620  0.00  0.00    -0.225 OA
ATOM     30  H   UNL     1       2.712  -2.641  25.498  0.00  0.00    +0.172 HD
BRANCH  28  31
ATOM     31  O   UNL     1       2.421  -1.172  23.350  0.00  0.00    -0.465 OA
ATOM     32  H   UNL     1       2.857  -0.722  24.047  0.00  0.00    +0.297 HD
ENDBRANCH  28  31
ENDBRANCH  25  27
ENDBRANCH   1  25
TORSDOF 6
