REMARK  Name = =
REMARK  8 active torsions:
REMARK  status: ('A' for Active; 'I' for Inactive)
REMARK    1  A    between atoms: C_1  and  N_23
REMARK    2  A    between atoms: C_1  and  N_32
REMARK    3  A    between atoms: C_7  and  C_9
REMARK    4  A    between atoms: C_12  and  C_15
REMARK    5  A    between atoms: C_16  and  C_21
REMARK    6  A    between atoms: C_24  and  C_26
REMARK    7  A    between atoms: N_32  and  N_33
REMARK    8  A    between atoms: C_34  and  O_36
REMARK                            x       y       z     vdW  Elec       q    Type
REMARK                         _______ _______ _______ _____ _____    ______ ____
ROOT
ATOM      1  C   UNL     1       3.300  -3.186  25.292  0.00  0.00    +0.119 C 
ATOM      2  C   UNL     1       4.237  -3.810  26.278  0.00  0.00    +0.056 C 
ATOM      3  C   UNL     1       3.978  -5.227  26.611  0.00  0.00    +0.097 C 
ATOM      4  N   UNL     1       2.711  -5.264  27.389  0.00  0.00    -0.276 N 
ATOM      5  C   UNL     1       1.862  -4.146  27.168  0.00  0.00    +0.097 C 
ATOM      6  C   UNL     1       1.948  -3.601  25.722  0.00  0.00    +0.056 C 
ATOM      7  C   UNL     1       2.385  -6.361  28.178  0.00  0.00    +0.249 C 
ATOM      8  O   UNL     1       3.206  -7.363  28.022  0.00  0.00    -0.270 OA
ENDROOT
BRANCH   7   9
ATOM      9  C   UNL     1       1.346  -6.605  29.111  0.00  0.00    +0.054 C 
ATOM     10  C   UNL     1       1.388  -6.220  30.404  0.00  0.00    +0.005 C 
ATOM     11  C   UNL     1       0.363  -6.403  31.315  0.00  0.00    +0.000 C 
ATOM     12  C   UNL     1      -0.785  -7.024  30.884  0.00  0.00    +0.001 C 
ATOM     13  C   UNL     1      -0.910  -7.446  29.575  0.00  0.00    +0.000 C 
ATOM     14  C   UNL     1       0.142  -7.233  28.720  0.00  0.00    +0.005 C 
BRANCH  12  15
ATOM     15  C   UNL     1      -1.875  -7.302  31.788  0.00  0.00    +0.010 C 
ATOM     16  C   UNL     1      -2.925  -6.396  31.859  0.00  0.00    +0.068 C 
ATOM     17  C   UNL     1      -3.996  -6.539  32.692  0.00  0.00    +0.010 C 
ATOM     18  C   UNL     1      -4.059  -7.671  33.539  0.00  0.00    +0.001 C 
ATOM     19  C   UNL     1      -3.025  -8.559  33.460  0.00  0.00    +0.000 C 
ATOM     20  C   UNL     1      -1.942  -8.393  32.605  0.00  0.00    +0.001 C 
BRANCH  16  21
ATOM     21  C   UNL     1      -2.969  -5.235  30.953  0.00  0.00    +0.100 C 
ATOM     22  N   UNL     1      -2.999  -4.343  30.237  0.00  0.00    -0.191 NA
ENDBRANCH  16  21
ENDBRANCH  12  15
ENDBRANCH   7   9
BRANCH   1  23
ATOM     23  N   UNL     1       3.677  -3.387  23.977  0.00  0.00    -0.291 N 
ATOM     24  C   UNL     1       3.273  -4.342  22.972  0.00  0.00    +0.248 C 
ATOM     25  O   UNL     1       2.413  -5.137  23.335  0.00  0.00    -0.270 OA
ATOM     26  H   UNL     1       4.359  -2.750  23.662  0.00  0.00    +0.151 HD
BRANCH  24  27
ATOM     27  C   UNL     1       3.840  -4.348  21.642  0.00  0.00    +0.073 C 
ATOM     28  C   UNL     1       5.040  -3.767  21.303  0.00  0.00    +0.103 C 
ATOM     29  N   UNL     1       5.479  -3.797  20.013  0.00  0.00    -0.242 NA
ATOM     30  C   UNL     1       4.796  -4.375  19.029  0.00  0.00    +0.099 C 
ATOM     31  C   UNL     1       3.590  -4.980  19.291  0.00  0.00    +0.021 C 
ATOM     32  C   UNL     1       3.129  -4.954  20.617  0.00  0.00    +0.008 C 
ENDBRANCH  24  27
ENDBRANCH   1  23
BRANCH   1  33
ATOM     33  N   UNL     1       3.472  -1.727  25.544  0.00  0.00    -0.214 NA
ATOM     34  H   UNL     1       4.209  -1.626  26.242  0.00  0.00    +0.147 HD
BRANCH  33  35
ATOM     35  N   UNL     1       3.792  -0.943  24.517  0.00  0.00    -0.214 N 
ATOM     36  C   UNL     1       3.076   0.093  23.902  0.00  0.00    +0.412 C 
ATOM     37  O   UNL     1       1.943   0.426  24.293  0.00  0.00    -0.225 OA
ATOM     38  H   UNL     1       4.677  -1.120  24.125  0.00  0.00    +0.172 HD
BRANCH  36  39
ATOM     39  O   UNL     1       3.654   0.787  22.804  0.00  0.00    -0.465 OA
ATOM     40  H   UNL     1       4.507   0.550  22.496  0.00  0.00    +0.297 HD
ENDBRANCH  36  39
ENDBRANCH  33  35
ENDBRANCH   1  33
TORSDOF 8
