REMARK  Name = =
REMARK  9 active torsions:
REMARK  status: ('A' for Active; 'I' for Inactive)
REMARK    1  A    between atoms: C_1  and  N_27
REMARK    2  A    between atoms: C_1  and  N_36
REMARK    3  A    between atoms: C_3  and  C_23
REMARK    4  A    between atoms: C_7  and  C_9
REMARK    5  A    between atoms: C_12  and  C_15
REMARK    6  A    between atoms: C_16  and  C_21
REMARK    7  A    between atoms: C_28  and  C_30
REMARK    8  A    between atoms: N_36  and  N_37
REMARK    9  A    between atoms: C_38  and  O_40
REMARK                            x       y       z     vdW  Elec       q    Type
REMARK                         _______ _______ _______ _____ _____    ______ ____
ROOT
ATOM      1  C   UNL     1       3.440  -4.031  24.771  0.00  0.00    +0.119 C 
ATOM      2  C   UNL     1       4.042  -5.433  24.672  0.00  0.00    +0.055 C 
ATOM      3  C   UNL     1       3.791  -6.253  25.853  0.00  0.00    +0.079 C 
ATOM      4  N   UNL     1       2.672  -5.964  26.727  0.00  0.00    -0.278 N 
ATOM      5  C   UNL     1       1.982  -4.724  26.662  0.00  0.00    +0.097 C 
ATOM      6  C   UNL     1       2.030  -4.162  25.248  0.00  0.00    +0.056 C 
ATOM      7  C   UNL     1       2.225  -7.021  27.609  0.00  0.00    +0.249 C 
ATOM      8  O   UNL     1       2.835  -8.133  27.430  0.00  0.00    -0.270 OA
ENDROOT
BRANCH   7   9
ATOM      9  C   UNL     1       1.199  -6.917  28.604  0.00  0.00    +0.054 C 
ATOM     10  C   UNL     1       0.352  -8.043  28.766  0.00  0.00    +0.005 C 
ATOM     11  C   UNL     1      -0.663  -8.018  29.702  0.00  0.00    +0.000 C 
ATOM     12  C   UNL     1      -0.912  -6.952  30.501  0.00  0.00    -0.000 C 
ATOM     13  C   UNL     1      -0.083  -5.864  30.342  0.00  0.00    +0.000 C 
ATOM     14  C   UNL     1       0.964  -5.832  29.412  0.00  0.00    +0.005 C 
BRANCH  12  15
ATOM     15  C   UNL     1      -1.978  -6.818  31.487  0.00  0.00    -0.003 C 
ATOM     16  C   UNL     1      -1.882  -7.279  32.777  0.00  0.00    -0.003 C 
ATOM     17  C   UNL     1      -2.968  -7.078  33.657  0.00  0.00    -0.003 C 
ATOM     18  C   UNL     1      -4.110  -6.440  33.284  0.00  0.00    -0.000 C 
ATOM     19  C   UNL     1      -4.177  -5.981  31.962  0.00  0.00    -0.000 C 
ATOM     20  C   UNL     1      -3.148  -6.166  31.099  0.00  0.00    -0.000 C 
BRANCH  16  21
ATOM     21  C   UNL     1      -0.745  -7.817  33.260  0.00  0.00    +0.136 C 
ATOM     22  N   UNL     1       0.305  -8.323  33.728  0.00  0.00    -0.126 NA
ENDBRANCH  16  21
ENDBRANCH  12  15
ENDBRANCH   7   9
BRANCH   3  23
ATOM     23  C   UNL     1       4.990  -6.586  26.684  0.00  0.00    +0.018 C 
ATOM     24  C   UNL     1       6.123  -7.328  25.951  0.00  0.00    +0.002 C 
ATOM     25  C   UNL     1       7.045  -6.662  26.989  0.00  0.00    +0.000 C 
ATOM     26  C   UNL     1       6.003  -5.524  26.978  0.00  0.00    +0.002 C 
ENDBRANCH   3  23
BRANCH   1  27
ATOM     27  N   UNL     1       3.489  -3.337  23.520  0.00  0.00    -0.291 N 
ATOM     28  C   UNL     1       2.494  -2.370  23.162  0.00  0.00    +0.248 C 
ATOM     29  O   UNL     1       1.555  -2.160  23.941  0.00  0.00    -0.270 OA
ATOM     30  H   UNL     1       4.222  -3.528  22.892  0.00  0.00    +0.151 HD
BRANCH  28  31
ATOM     31  C   UNL     1       2.518  -1.609  21.931  0.00  0.00    +0.073 C 
ATOM     32  C   UNL     1       2.953  -2.055  20.730  0.00  0.00    +0.103 C 
ATOM     33  N   UNL     1       2.896  -1.241  19.618  0.00  0.00    -0.242 NA
ATOM     34  C   UNL     1       2.423  -0.009  19.687  0.00  0.00    +0.099 C 
ATOM     35  C   UNL     1       1.970   0.499  20.886  0.00  0.00    +0.021 C 
ATOM     36  C   UNL     1       2.018  -0.289  21.996  0.00  0.00    +0.008 C 
ENDBRANCH  28  31
ENDBRANCH   1  27
BRANCH   1  37
ATOM     37  N   UNL     1       4.182  -3.280  25.751  0.00  0.00    -0.214 NA
ATOM     38  H   UNL     1       4.991  -3.851  25.997  0.00  0.00    +0.147 HD
BRANCH  37  39
ATOM     39  N   UNL     1       4.647  -2.067  25.494  0.00  0.00    -0.214 N 
ATOM     40  C   UNL     1       6.015  -1.713  25.190  0.00  0.00    +0.412 C 
ATOM     41  O   UNL     1       6.824  -2.644  25.193  0.00  0.00    -0.225 OA
ATOM     42  H   UNL     1       3.994  -1.331  25.512  0.00  0.00    +0.172 HD
BRANCH  40  43
ATOM     43  O   UNL     1       6.344  -0.375  24.916  0.00  0.00    -0.465 OA
ATOM     44  H   UNL     1       5.678   0.284  24.931  0.00  0.00    +0.297 HD
ENDBRANCH  40  43
ENDBRANCH  37  39
ENDBRANCH   1  37
TORSDOF 9
