REMARK  Name = =
REMARK  0 active torsions:
REMARK  status: ('A' for Active; 'I' for Inactive)
REMARK                            x       y       z     vdW  Elec       q    Type
REMARK                         _______ _______ _______ _____ _____    ______ ____
ROOT
ATOM      1  C   UNL     1      -4.416  -4.259  30.535  0.00  0.00    +0.017 C 
ATOM      2  C   UNL     1      -4.562  -2.900  31.137  0.00  0.00    +0.069 C 
ATOM      3  N   UNL     1      -3.659  -1.919  30.647  0.00  0.00    -0.297 NA
ATOM      4  C   UNL     1      -2.906  -2.326  29.482  0.00  0.00    +0.069 C 
ATOM      5  C   UNL     1      -1.718  -3.102  29.940  0.00  0.00    +0.017 C 
ATOM      6  C   UNL     1      -1.916  -4.517  30.256  0.00  0.00    +0.001 C 
ATOM      7  C   UNL     1      -3.149  -4.962  30.895  0.00  0.00    +0.001 C 
ATOM      8  H   UNL     1      -2.998  -1.694  31.391  0.00  0.00    +0.123 HD
ENDROOT
TORSDOF 0
