REMARK  Name = =
REMARK  0 active torsions:
REMARK  status: ('A' for Active; 'I' for Inactive)
REMARK                            x       y       z     vdW  Elec       q    Type
REMARK                         _______ _______ _______ _____ _____    ______ ____
ROOT
ATOM      1  C   UNL     1      -3.833  -4.780  30.965  0.00  0.00    +0.108 C 
ATOM      2  N   UNL     1      -3.991  -5.632  31.907  0.00  0.00    -0.189 NA
ATOM      3  C   UNL     1      -4.140  -4.883  33.132  0.00  0.00    +0.186 C 
ATOM      4  N   UNL     1      -4.046  -3.494  32.756  0.00  0.00    -0.223 NA
ATOM      5  C   UNL     1      -3.867  -3.437  31.492  0.00  0.00    +0.118 C 
ENDROOT
TORSDOF 0
