REMARK  Name = =
REMARK  1 active torsions:
REMARK  status: ('A' for Active; 'I' for Inactive)
REMARK    1  A    between atoms: C_1  and  N_6
REMARK                            x       y       z     vdW  Elec       q    Type
REMARK                         _______ _______ _______ _____ _____    ______ ____
ROOT
ATOM      1  N   UNL     1      -2.531  -6.093  31.507  0.00  0.00    -0.191 N 
ATOM      2  C   UNL     1      -2.431  -6.844  32.708  0.00  0.00    +0.252 C 
ATOM      3  O   UNL     1      -3.273  -6.621  33.607  0.00  0.00    -0.273 OA
ATOM      4  C   UNL     1      -1.357  -7.831  32.829  0.00  0.00    +0.156 C 
ATOM      5  N   UNL     1      -0.157  -7.481  32.122  0.00  0.00    -0.282 NA
ATOM      6  C   UNL     1      -0.349  -7.157  30.735  0.00  0.00    +0.156 C 
ATOM      7  C   UNL     1      -1.616  -6.433  30.481  0.00  0.00    +0.252 C 
ATOM      8  O   UNL     1      -1.862  -6.121  29.290  0.00  0.00    -0.273 OA
ATOM      9  H   UNL     1       0.486  -8.271  32.178  0.00  0.00    +0.124 HD
ENDROOT
BRANCH   1  10
ATOM     10  C   UNL     1      -3.514  -5.048  31.361  0.00  0.00    +0.153 C 
ATOM     11  N   UNL     1      -4.378  -4.681  32.234  0.00  0.00    -0.175 NA
ATOM     12  C   UNL     1      -5.186  -3.611  31.727  0.00  0.00    +0.187 C 
ATOM     13  N   UNL     1      -4.676  -3.383  30.403  0.00  0.00    -0.222 NA
ATOM     14  C   UNL     1      -3.714  -4.211  30.193  0.00  0.00    +0.133 C 
ENDBRANCH   1  10
TORSDOF 1
