REMARK  Name = =
REMARK  0 active torsions:
REMARK  status: ('A' for Active; 'I' for Inactive)
REMARK                            x       y       z     vdW  Elec       q    Type
REMARK                         _______ _______ _______ _____ _____    ______ ____
ROOT
ATOM      1  C   UNL     1      -3.472  -4.781  31.658  0.00  0.00    +0.147 C 
ATOM      2  N   UNL     1      -3.600  -3.743  30.928  0.00  0.00    -0.211 NA
ATOM      3  C   UNL     1      -4.622  -2.889  31.469  0.00  0.00    +0.196 C 
ATOM      4  N   UNL     1      -5.076  -3.591  32.636  0.00  0.00    -0.242 NA
ATOM      5  C   UNL     1      -4.414  -4.685  32.749  0.00  0.00    +0.189 C 
ATOM      6  N   UNL     1      -2.549  -5.837  31.412  0.00  0.00    -0.192 N 
ATOM      7  C   UNL     1      -2.469  -6.960  32.283  0.00  0.00    +0.254 C 
ATOM      8  O   UNL     1      -2.748  -6.839  33.523  0.00  0.00    -0.273 OA
ATOM      9  C   UNL     1      -2.057  -8.254  31.707  0.00  0.00    +0.178 C 
ATOM     10  N   UNL     1      -1.179  -8.189  30.605  0.00  0.00    -0.168 NA
ATOM     11  N   UNL     1      -1.421  -9.056  29.572  0.00  0.00    -0.036 NA
ATOM     12  C   UNL     1      -0.652  -6.924  30.260  0.00  0.00    +0.178 C 
ATOM     13  C   UNL     1      -1.669  -5.824  30.298  0.00  0.00    +0.254 C 
ATOM     14  O   UNL     1      -1.758  -4.942  29.421  0.00  0.00    -0.273 OA
ENDROOT
TORSDOF 0
