REMARK  Name = =
REMARK  1 active torsions:
REMARK  status: ('A' for Active; 'I' for Inactive)
REMARK    1  A    between atoms: C_3  and  N_15
REMARK                            x       y       z     vdW  Elec       q    Type
REMARK                         _______ _______ _______ _____ _____    ______ ____
ROOT
ATOM      1  C   UNL     1      -3.255  -5.020  32.145  0.00  0.00    +0.161 C 
ATOM      2  N   UNL     1      -3.157  -3.929  31.470  0.00  0.00    -0.216 NA
ATOM      3  C   UNL     1      -3.862  -2.855  32.093  0.00  0.00    +0.274 C 
ATOM      4  N   UNL     1      -4.421  -3.464  33.281  0.00  0.00    -0.229 NA
ATOM      5  C   UNL     1      -4.071  -4.704  33.307  0.00  0.00    +0.131 C 
ATOM      6  N   UNL     1      -2.680  -6.280  31.820  0.00  0.00    -0.189 N 
ATOM      7  C   UNL     1      -2.851  -7.431  32.637  0.00  0.00    +0.254 C 
ATOM      8  O   UNL     1      -3.904  -7.511  33.345  0.00  0.00    -0.273 OA
ATOM      9  C   UNL     1      -1.811  -8.464  32.625  0.00  0.00    +0.178 C 
ATOM     10  N   UNL     1      -1.104  -8.606  31.396  0.00  0.00    -0.168 NA
ATOM     11  N   UNL     1       0.259  -8.231  31.515  0.00  0.00    -0.036 NA
ATOM     12  C   UNL     1      -1.639  -7.894  30.280  0.00  0.00    +0.178 C 
ATOM     13  C   UNL     1      -1.894  -6.459  30.645  0.00  0.00    +0.254 C 
ATOM     14  O   UNL     1      -1.470  -5.493  30.002  0.00  0.00    -0.273 OA
ENDROOT
BRANCH   3  15
ATOM     15  N   UNL     1      -4.938  -2.335  31.288  0.00  0.00    -0.227 NA
ATOM     16  C   UNL     1      -5.036  -0.915  31.423  0.00  0.00    +0.102 C 
ATOM     17  C   UNL     1      -6.480  -0.621  31.477  0.00  0.00    -0.009 C 
ATOM     18  C   UNL     1      -7.169  -1.792  31.621  0.00  0.00    -0.009 C 
ATOM     19  C   UNL     1      -6.198  -2.898  31.665  0.00  0.00    +0.102 C 
ATOM     20  C   UNL     1      -8.570  -1.804  31.701  0.00  0.00    -0.003 C 
ATOM     21  C   UNL     1      -9.285  -0.632  31.636  0.00  0.00    -0.000 C 
ATOM     22  C   UNL     1      -8.598   0.553  31.491  0.00  0.00    -0.000 C 
ATOM     23  C   UNL     1      -7.224   0.556  31.414  0.00  0.00    -0.003 C 
ENDBRANCH   3  15
TORSDOF 1
