REMARK  Name = =
REMARK  2 active torsions:
REMARK  status: ('A' for Active; 'I' for Inactive)
REMARK    1  A    between atoms: C_3  and  N_15
REMARK    2  A    between atoms: C_19  and  N_24
REMARK                            x       y       z     vdW  Elec       q    Type
REMARK                         _______ _______ _______ _____ _____    ______ ____
ROOT
ATOM      1  C   UNL     1      -4.493  -3.030  31.531  0.00  0.00    +0.161 C 
ATOM      2  N   UNL     1      -3.551  -3.214  30.675  0.00  0.00    -0.216 NA
ATOM      3  C   UNL     1      -3.151  -4.587  30.675  0.00  0.00    +0.275 C 
ATOM      4  N   UNL     1      -3.984  -5.219  31.654  0.00  0.00    -0.229 NA
ATOM      5  C   UNL     1      -4.762  -4.314  32.150  0.00  0.00    +0.131 C 
ATOM      6  N   UNL     1      -5.140  -1.759  31.798  0.00  0.00    -0.189 N 
ATOM      7  C   UNL     1      -4.748  -0.591  31.088  0.00  0.00    +0.254 C 
ATOM      8  O   UNL     1      -3.597  -0.508  30.596  0.00  0.00    -0.273 OA
ATOM      9  C   UNL     1      -5.669   0.561  30.902  0.00  0.00    +0.178 C 
ATOM     10  N   UNL     1      -6.969   0.300  31.489  0.00  0.00    -0.168 NA
ATOM     11  N   UNL     1      -7.684   1.494  31.638  0.00  0.00    -0.036 NA
ATOM     12  C   UNL     1      -6.857  -0.286  32.809  0.00  0.00    +0.178 C 
ATOM     13  C   UNL     1      -6.170  -1.622  32.758  0.00  0.00    +0.254 C 
ATOM     14  O   UNL     1      -6.497  -2.540  33.518  0.00  0.00    -0.273 OA
ENDROOT
BRANCH   3  15
ATOM     15  N   UNL     1      -1.738  -4.755  30.980  0.00  0.00    -0.212 NA
ATOM     16  C   UNL     1      -0.997  -4.032  29.964  0.00  0.00    +0.104 C 
ATOM     17  C   UNL     1      -0.606  -5.016  28.949  0.00  0.00    -0.007 C 
ATOM     18  C   UNL     1      -0.849  -6.270  29.422  0.00  0.00    +0.009 C 
ATOM     19  C   UNL     1      -1.418  -6.155  30.790  0.00  0.00    +0.165 C 
ATOM     20  C   UNL     1      -0.567  -7.358  28.659  0.00  0.00    -0.002 C 
ATOM     21  C   UNL     1      -0.032  -7.236  27.392  0.00  0.00    -0.000 C 
ATOM     22  C   UNL     1       0.212  -5.966  26.918  0.00  0.00    -0.000 C 
ATOM     23  C   UNL     1      -0.073  -4.863  27.690  0.00  0.00    -0.003 C 
BRANCH  19  24
ATOM     24  N   UNL     1      -0.468  -6.621  31.784  0.00  0.00    -0.269 N 
ATOM     25  C   UNL     1       0.700  -6.030  32.075  0.00  0.00    +0.067 C 
ATOM     26  C   UNL     1       1.310  -6.778  33.072  0.00  0.00    +0.017 C 
ATOM     27  C   UNL     1       0.480  -7.840  33.377  0.00  0.00    +0.017 C 
ATOM     28  C   UNL     1      -0.617  -7.707  32.554  0.00  0.00    +0.067 C 
ENDBRANCH  19  24
ENDBRANCH   3  15
TORSDOF 2
