REMARK  Name = =
REMARK  3 active torsions:
REMARK  status: ('A' for Active; 'I' for Inactive)
REMARK    1  A    between atoms: C_3  and  N_15
REMARK    2  A    between atoms: C_9  and  N_29
REMARK    3  A    between atoms: C_19  and  N_24
REMARK                            x       y       z     vdW  Elec       q    Type
REMARK                         _______ _______ _______ _____ _____    ______ ____
ROOT
ATOM      1  C   UNL     1      -3.614  -3.536  31.222  0.00  0.00    +0.161 C 
ATOM      2  N   UNL     1      -3.698  -2.262  31.322  0.00  0.00    -0.216 NA
ATOM      3  C   UNL     1      -4.806  -1.961  32.185  0.00  0.00    +0.275 C 
ATOM      4  N   UNL     1      -5.324  -3.249  32.549  0.00  0.00    -0.229 NA
ATOM      5  C   UNL     1      -4.638  -4.183  31.995  0.00  0.00    +0.131 C 
ATOM      6  N   UNL     1      -2.628  -4.200  30.444  0.00  0.00    -0.188 N 
ATOM      7  C   UNL     1      -1.628  -3.477  29.697  0.00  0.00    +0.267 C 
ATOM      8  O   UNL     1      -1.432  -2.265  29.958  0.00  0.00    -0.271 OA
ATOM      9  C   UNL     1      -0.906  -4.243  28.670  0.00  0.00    +0.207 C 
ATOM     10  N   UNL     1      -0.457  -5.528  29.069  0.00  0.00    -0.156 NA
ATOM     11  N   UNL     1      -0.268  -6.380  27.977  0.00  0.00    -0.035 NA
ATOM     12  C   UNL     1      -1.210  -6.193  30.075  0.00  0.00    +0.179 C 
ATOM     13  C   UNL     1      -2.547  -5.615  30.335  0.00  0.00    +0.254 C 
ATOM     14  O   UNL     1      -3.597  -6.298  30.463  0.00  0.00    -0.273 OA
ENDROOT
BRANCH   3  15
ATOM     15  N   UNL     1      -5.768  -1.173  31.431  0.00  0.00    -0.212 NA
ATOM     16  C   UNL     1      -5.114   0.056  31.049  0.00  0.00    +0.104 C 
ATOM     17  C   UNL     1      -6.198   1.037  30.944  0.00  0.00    -0.007 C 
ATOM     18  C   UNL     1      -7.251   0.592  31.697  0.00  0.00    +0.009 C 
ATOM     19  C   UNL     1      -6.861  -0.704  32.281  0.00  0.00    +0.165 C 
ATOM     20  C   UNL     1      -8.383   1.355  31.760  0.00  0.00    -0.002 C 
ATOM     21  C   UNL     1      -8.498   2.552  31.094  0.00  0.00    -0.000 C 
ATOM     22  C   UNL     1      -7.444   2.995  30.341  0.00  0.00    -0.000 C 
ATOM     23  C   UNL     1      -6.300   2.236  30.269  0.00  0.00    -0.003 C 
BRANCH  19  24
ATOM     24  N   UNL     1      -7.930  -1.678  32.212  0.00  0.00    -0.269 N 
ATOM     25  C   UNL     1      -8.676  -1.908  31.120  0.00  0.00    +0.067 C 
ATOM     26  C   UNL     1      -9.606  -2.887  31.363  0.00  0.00    +0.017 C 
ATOM     27  C   UNL     1      -9.437  -3.287  32.661  0.00  0.00    +0.017 C 
ATOM     28  C   UNL     1      -8.391  -2.518  33.156  0.00  0.00    +0.067 C 
ENDBRANCH  19  24
ENDBRANCH   3  15
BRANCH   9  29
ATOM     29  N   UNL     1       0.265  -3.494  28.190  0.00  0.00    -0.301 NA
ATOM     30  H   UNL     1       0.751  -4.041  27.480  0.00  0.00    +0.120 HD
ATOM     31  H   UNL     1       0.896  -3.313  28.971  0.00  0.00    +0.120 HD
ENDBRANCH   9  29
TORSDOF 3
