REMARK  Name = =
REMARK  4 active torsions:
REMARK  status: ('A' for Active; 'I' for Inactive)
REMARK    1  A    between atoms: N_1  and  C_12
REMARK    2  A    between atoms: C_5  and  N_25
REMARK    3  A    between atoms: C_18  and  N_24
REMARK    4  A    between atoms: C_27  and  C_30
REMARK                            x       y       z     vdW  Elec       q    Type
REMARK                         _______ _______ _______ _____ _____    ______ ____
ROOT
ATOM      1  N   UNL     1      -3.670  -4.668  31.261  0.00  0.00    -0.212 NA
ATOM      2  C   UNL     1      -4.192  -5.906  31.804  0.00  0.00    +0.104 C 
ATOM      3  C   UNL     1      -3.308  -6.942  31.174  0.00  0.00    -0.007 C 
ATOM      4  C   UNL     1      -2.186  -6.326  30.693  0.00  0.00    +0.009 C 
ATOM      5  C   UNL     1      -2.281  -4.893  30.984  0.00  0.00    +0.165 C 
ATOM      6  C   UNL     1      -1.194  -7.071  30.053  0.00  0.00    -0.002 C 
ATOM      7  C   UNL     1      -1.371  -8.431  29.918  0.00  0.00    -0.000 C 
ATOM      8  C   UNL     1      -2.500  -9.064  30.399  0.00  0.00    -0.000 C 
ATOM      9  C   UNL     1      -3.488  -8.323  31.036  0.00  0.00    -0.003 C 
ENDROOT
BRANCH   1  12
ATOM     10  C   UNL     1      -5.160  -1.776  31.964  0.00  0.00    +0.161 C 
ATOM     11  N   UNL     1      -4.041  -2.326  31.627  0.00  0.00    -0.216 NA
ATOM     12  C   UNL     1      -3.884  -3.625  32.244  0.00  0.00    +0.275 C 
ATOM     13  N   UNL     1      -5.084  -3.768  33.004  0.00  0.00    -0.229 NA
ATOM     14  C   UNL     1      -5.826  -2.702  32.846  0.00  0.00    +0.131 C 
ATOM     15  N   UNL     1      -5.613  -0.488  31.522  0.00  0.00    -0.188 N 
ATOM     16  C   UNL     1      -6.853   0.073  31.921  0.00  0.00    +0.267 C 
ATOM     17  O   UNL     1      -7.684  -0.618  32.535  0.00  0.00    -0.271 OA
ATOM     18  C   UNL     1      -7.110   1.515  31.577  0.00  0.00    +0.207 C 
ATOM     19  N   UNL     1      -6.720   1.712  30.174  0.00  0.00    -0.156 NA
ATOM     20  N   UNL     1      -7.041   3.036  29.860  0.00  0.00    -0.035 NA
ATOM     21  C   UNL     1      -5.281   1.592  30.137  0.00  0.00    +0.179 C 
ATOM     22  C   UNL     1      -4.808   0.284  30.643  0.00  0.00    +0.254 C 
ATOM     23  O   UNL     1      -3.681  -0.185  30.313  0.00  0.00    -0.273 OA
BRANCH  18  24
ATOM     24  N   UNL     1      -8.502   1.770  31.797  0.00  0.00    -0.301 NA
ATOM     25  H   UNL     1      -8.724   1.621  32.781  0.00  0.00    +0.120 HD
ATOM     26  H   UNL     1      -9.059   1.136  31.223  0.00  0.00    +0.120 HD
ENDBRANCH  18  24
ENDBRANCH   1  12
BRANCH   5  27
ATOM     27  N   UNL     1      -1.754  -4.055  29.941  0.00  0.00    -0.269 N 
ATOM     28  C   UNL     1      -0.452  -4.006  29.620  0.00  0.00    +0.067 C 
ATOM     29  C   UNL     1      -0.285  -3.109  28.587  0.00  0.00    +0.016 C 
ATOM     30  C   UNL     1      -1.530  -2.593  28.268  0.00  0.00    +0.017 C 
ATOM     31  C   UNL     1      -2.412  -3.207  29.131  0.00  0.00    +0.067 C 
BRANCH  29  32
ATOM     32  C   UNL     1       0.959  -2.737  27.922  0.00  0.00    +0.003 C 
ATOM     33  C   UNL     1       2.158  -3.342  28.226  0.00  0.00    +0.016 C 
ATOM     34  C   UNL     1       3.330  -2.991  27.600  0.00  0.00    +0.059 C 
ATOM     35  N   UNL     1       4.669  -3.442  27.717  0.00  0.00    -0.315 N 
ATOM     36  C   UNL     1       5.509  -2.412  27.146  0.00  0.00    +0.182 C 
ATOM     37  N   UNL     1       4.653  -1.826  26.147  0.00  0.00    -0.315 N 
ATOM     38  C   UNL     1       3.332  -2.006  26.634  0.00  0.00    +0.059 C 
ATOM     39  C   UNL     1       2.139  -1.383  26.311  0.00  0.00    +0.016 C 
ATOM     40  C   UNL     1       0.971  -1.755  26.956  0.00  0.00    +0.001 C 
ATOM     41  H   UNL     1       4.969  -4.293  28.111  0.00  0.00    +0.148 HD
ATOM     42  H   UNL     1       4.926  -1.393  25.306  0.00  0.00    +0.148 HD
ENDBRANCH  29  32
ENDBRANCH   5  27
TORSDOF 4
