REMARK  Name = =
REMARK  6 active torsions:
REMARK  status: ('A' for Active; 'I' for Inactive)
REMARK    1  A    between atoms: N_1  and  C_12
REMARK    2  A    between atoms: C_5  and  N_25
REMARK    3  A    between atoms: C_18  and  N_24
REMARK    4  A    between atoms: C_27  and  C_30
REMARK    5  A    between atoms: C_37  and  C_39
REMARK    6  A    between atoms: C_39  and  C_41
REMARK                            x       y       z     vdW  Elec       q    Type
REMARK                         _______ _______ _______ _____ _____    ______ ____
ROOT
ATOM      1  N   UNL     1      -2.325  -5.450  29.811  0.00  0.00    -0.212 NA
ATOM      2  C   UNL     1      -1.401  -6.546  29.632  0.00  0.00    +0.104 C 
ATOM      3  C   UNL     1      -1.199  -7.024  31.031  0.00  0.00    -0.007 C 
ATOM      4  C   UNL     1      -2.307  -6.661  31.757  0.00  0.00    +0.009 C 
ATOM      5  C   UNL     1      -3.206  -5.936  30.821  0.00  0.00    +0.165 C 
ATOM      6  C   UNL     1      -2.440  -6.964  33.095  0.00  0.00    -0.002 C 
ATOM      7  C   UNL     1      -1.414  -7.654  33.700  0.00  0.00    -0.000 C 
ATOM      8  C   UNL     1      -0.288  -8.029  32.986  0.00  0.00    -0.000 C 
ATOM      9  C   UNL     1      -0.171  -7.719  31.650  0.00  0.00    -0.003 C 
ENDROOT
BRANCH   1  12
ATOM     10  C   UNL     1       0.069  -3.526  28.753  0.00  0.00    +0.161 C 
ATOM     11  N   UNL     1      -1.220  -3.631  28.889  0.00  0.00    -0.216 NA
ATOM     12  C   UNL     1      -1.567  -4.286  30.134  0.00  0.00    +0.275 C 
ATOM     13  N   UNL     1      -0.293  -4.557  30.722  0.00  0.00    -0.229 NA
ATOM     14  C   UNL     1       0.642  -4.128  29.945  0.00  0.00    +0.131 C 
ATOM     15  N   UNL     1       0.757  -2.934  27.649  0.00  0.00    -0.188 N 
ATOM     16  C   UNL     1       2.166  -2.861  27.573  0.00  0.00    +0.267 C 
ATOM     17  O   UNL     1       2.868  -3.631  28.262  0.00  0.00    -0.271 OA
ATOM     18  C   UNL     1       2.847  -1.867  26.673  0.00  0.00    +0.207 C 
ATOM     19  N   UNL     1       1.889  -0.918  26.143  0.00  0.00    -0.156 NA
ATOM     20  N   UNL     1       1.490  -0.017  27.128  0.00  0.00    -0.035 NA
ATOM     21  C   UNL     1       0.734  -1.564  25.545  0.00  0.00    +0.179 C 
ATOM     22  C   UNL     1       0.011  -2.392  26.575  0.00  0.00    +0.254 C 
ATOM     23  O   UNL     1      -1.216  -2.616  26.519  0.00  0.00    -0.273 OA
BRANCH  18  24
ATOM     24  N   UNL     1       3.514  -2.505  25.573  0.00  0.00    -0.301 NA
ATOM     25  H   UNL     1       4.193  -3.177  25.931  0.00  0.00    +0.120 HD
ATOM     26  H   UNL     1       3.995  -1.801  25.013  0.00  0.00    +0.120 HD
ENDBRANCH  18  24
ENDBRANCH   1  12
BRANCH   5  27
ATOM     27  N   UNL     1      -3.948  -4.919  31.529  0.00  0.00    -0.269 N 
ATOM     28  C   UNL     1      -4.830  -4.032  30.976  0.00  0.00    +0.067 C 
ATOM     29  C   UNL     1      -5.348  -3.210  31.956  0.00  0.00    +0.016 C 
ATOM     30  C   UNL     1      -4.754  -3.623  33.130  0.00  0.00    +0.017 C 
ATOM     31  C   UNL     1      -3.892  -4.679  32.849  0.00  0.00    +0.067 C 
BRANCH  29  32
ATOM     32  C   UNL     1      -6.316  -2.128  31.826  0.00  0.00    +0.002 C 
ATOM     33  C   UNL     1      -5.970  -0.814  31.616  0.00  0.00    +0.016 C 
ATOM     34  C   UNL     1      -6.942   0.183  31.498  0.00  0.00    +0.059 C 
ATOM     35  N   UNL     1      -6.862   1.591  31.287  0.00  0.00    -0.315 N 
ATOM     36  C   UNL     1      -8.115   2.196  31.761  0.00  0.00    +0.182 C 
ATOM     37  N   UNL     1      -9.029   1.098  31.423  0.00  0.00    -0.315 N 
ATOM     38  C   UNL     1      -8.279  -0.125  31.588  0.00  0.00    +0.058 C 
ATOM     39  C   UNL     1      -8.657  -1.441  31.799  0.00  0.00    +0.030 C 
ATOM     40  C   UNL     1      -7.674  -2.418  31.913  0.00  0.00    -0.000 C 
ATOM     41  H   UNL     1      -6.100   2.074  30.893  0.00  0.00    +0.148 HD
ATOM     42  H   UNL     1      -9.968   1.179  31.140  0.00  0.00    +0.148 HD
BRANCH  39  43
ATOM     43  C   UNL     1     -10.068  -1.757  31.900  0.00  0.00    +0.239 C 
ATOM     44  O   UNL     1     -10.864  -1.022  31.199  0.00  0.00    -0.210 OA
BRANCH  43  45
ATOM     45  C   UNL     1     -10.654  -2.803  32.699  0.00  0.00    +0.245 C 
ATOM     46  O   UNL     1     -10.030  -3.537  33.471  0.00  0.00    -0.285 OA
ENDBRANCH  43  45
ENDBRANCH  39  43
ENDBRANCH  29  32
ENDBRANCH   5  27
TORSDOF 6
