REMARK  Name = =
REMARK  0 active torsions:
REMARK  status: ('A' for Active; 'I' for Inactive)
REMARK                            x       y       z     vdW  Elec       q    Type
REMARK                         _______ _______ _______ _____ _____    ______ ____
ROOT
ATOM      1  C   UNL     1      52.018 156.219  28.169  0.00  0.00    +0.143 C 
ATOM      2  O   UNL     1      53.230 156.193  27.477  0.00  0.00    -0.346 OA
ATOM      3  C   UNL     1      52.975 155.507  26.276  0.00  0.00    +0.206 C 
ATOM      4  C   UNL     1      52.370 154.185  26.591  0.00  0.00    +0.180 C 
ATOM      5  O   UNL     1      52.450 153.333  25.723  0.00  0.00    -0.293 OA
ATOM      6  C   UNL     1      51.692 153.832  27.849  0.00  0.00    +0.070 C 
ATOM      7  C   UNL     1      51.906 154.896  28.922  0.00  0.00    +0.040 C 
ENDROOT
TORSDOF 0
