REMARK  Name = =
REMARK  3 active torsions:
REMARK  status: ('A' for Active; 'I' for Inactive)
REMARK    1  A    between atoms: N_1  and  C_2
REMARK    2  A    between atoms: N_1  and  S_9
REMARK    3  A    between atoms: S_9  and  N_12
REMARK                            x       y       z     vdW  Elec       q    Type
REMARK                         _______ _______ _______ _____ _____    ______ ____
ROOT
ATOM      1  N   UNL     1      52.140 156.642  28.450  0.00  0.00    -0.145 NA
ATOM      2  H   UNL     1      53.011 156.813  28.952  0.00  0.00    +0.152 HD
ENDROOT
BRANCH   1   3
ATOM      3  C   UNL     1      52.408 155.678  27.443  0.00  0.00    +0.193 C 
ATOM      4  O   UNL     1      53.003 154.566  28.042  0.00  0.00    -0.332 OA
ATOM      5  C   UNL     1      52.810 153.404  27.311  0.00  0.00    +0.208 C 
ATOM      6  C   UNL     1      52.791 153.771  25.877  0.00  0.00    +0.181 C 
ATOM      7  O   UNL     1      52.141 153.152  25.067  0.00  0.00    -0.293 OA
ATOM      8  C   UNL     1      53.599 154.935  25.445  0.00  0.00    +0.071 C 
ATOM      9  C   UNL     1      53.283 156.156  26.323  0.00  0.00    +0.056 C 
ENDBRANCH   1   3
BRANCH   1  10
ATOM     10  S   UNL     1      50.967 156.251  29.590  0.00  0.00    +0.095 S 
ATOM     11  O   UNL     1      49.818 155.543  28.888  0.00  0.00    -0.141 OA
ATOM     12  O   UNL     1      51.449 155.457  30.749  0.00  0.00    -0.141 OA
BRANCH  10  13
ATOM     13  N   UNL     1      50.289 157.726  30.219  0.00  0.00    -0.193 NA
ATOM     14  H   UNL     1      51.014 158.253  30.706  0.00  0.00    +0.145 HD
ATOM     15  H   UNL     1      49.535 157.504  30.869  0.00  0.00    +0.145 HD
ENDBRANCH  10  13
ENDBRANCH   1  10
TORSDOF 3
