REMARK  Name = =
REMARK  5 active torsions:
REMARK  status: ('A' for Active; 'I' for Inactive)
REMARK    1  A    between atoms: C_1  and  C_8
REMARK    2  A    between atoms: C_1  and  C_18
REMARK    3  A    between atoms: C_18  and  N_25
REMARK    4  A    between atoms: N_25  and  S_26
REMARK    5  A    between atoms: S_26  and  N_29
REMARK                            x       y       z     vdW  Elec       q    Type
REMARK                         _______ _______ _______ _____ _____    ______ ____
ROOT
ATOM      1  C   UNL     1      53.757 153.341  25.628  0.00  0.00    +0.223 C 
ATOM      2  O   UNL     1      53.215 153.601  24.326  0.00  0.00    -0.445 OA
ATOM      3  C   UNL     1      54.048 153.703  23.218  0.00  0.00    +0.317 C 
ATOM      4  O   UNL     1      53.609 153.574  22.030  0.00  0.00    -0.250 OA
ATOM      5  C   UNL     1      55.503 153.967  23.364  0.00  0.00    +0.110 C 
ATOM      6  C   UNL     1      55.776 154.399  24.770  0.00  0.00    +0.016 C 
ATOM      7  C   UNL     1      55.223 153.318  25.718  0.00  0.00    +0.052 C 
ENDROOT
BRANCH   1   8
ATOM      8  C   UNL     1      53.353 154.623  26.373  0.00  0.00    +0.179 C 
ATOM      9  N   UNL     1      52.715 154.581  27.550  0.00  0.00    -0.227 NA
ATOM     10  C   UNL     1      52.348 155.677  28.223  0.00  0.00    +0.084 C 
ATOM     11  C   UNL     1      52.622 156.921  27.717  0.00  0.00    +0.037 C 
ATOM     12  C   UNL     1      53.286 156.987  26.494  0.00  0.00    +0.102 C 
ATOM     13  N   UNL     1      53.619 155.834  25.880  0.00  0.00    -0.226 NA
ATOM     14  C   UNL     1      52.248 158.080  28.384  0.00  0.00    +0.003 C 
ATOM     15  C   UNL     1      51.571 157.994  29.608  0.00  0.00    +0.000 C 
ATOM     16  C   UNL     1      51.296 156.744  30.117  0.00  0.00    +0.002 C 
ATOM     17  C   UNL     1      51.686 155.615  29.422  0.00  0.00    +0.019 C 
ENDBRANCH   1   8
BRANCH   1  18
ATOM     18  C   UNL     1      52.986 152.180  26.181  0.00  0.00    +0.196 C 
ATOM     19  O   UNL     1      51.691 152.661  26.464  0.00  0.00    -0.332 OA
ATOM     20  C   UNL     1      50.804 151.614  26.650  0.00  0.00    +0.208 C 
ATOM     21  C   UNL     1      51.536 150.436  27.143  0.00  0.00    +0.181 C 
ATOM     22  O   UNL     1      51.200 149.328  26.793  0.00  0.00    -0.293 OA
ATOM     23  C   UNL     1      52.675 150.606  28.059  0.00  0.00    +0.071 C 
ATOM     24  C   UNL     1      53.509 151.810  27.585  0.00  0.00    +0.056 C 
BRANCH  18  25
ATOM     25  N   UNL     1      52.857 151.055  25.373  0.00  0.00    -0.145 NA
ATOM     26  H   UNL     1      52.379 151.388  24.535  0.00  0.00    +0.152 HD
BRANCH  25  27
ATOM     27  S   UNL     1      54.064 150.085  24.813  0.00  0.00    +0.095 S 
ATOM     28  O   UNL     1      53.933 150.137  23.245  0.00  0.00    -0.141 OA
ATOM     29  O   UNL     1      55.477 150.461  25.012  0.00  0.00    -0.141 OA
BRANCH  27  30
ATOM     30  N   UNL     1      53.806 148.374  25.105  0.00  0.00    -0.193 NA
ATOM     31  H   UNL     1      53.864 148.187  26.106  0.00  0.00    +0.145 HD
ATOM     32  H   UNL     1      54.520 147.834  24.616  0.00  0.00    +0.145 HD
ENDBRANCH  27  30
ENDBRANCH  25  27
ENDBRANCH  18  25
ENDBRANCH   1  18
TORSDOF 5
