REMARK  Name = =
REMARK  6 active torsions:
REMARK  status: ('A' for Active; 'I' for Inactive)
REMARK    1  A    between atoms: C_1  and  C_8
REMARK    2  A    between atoms: C_1  and  C_24
REMARK    3  A    between atoms: O_20  and  O_21
REMARK    4  A    between atoms: C_24  and  N_31
REMARK    5  A    between atoms: N_31  and  S_32
REMARK    6  A    between atoms: S_32  and  N_35
REMARK                            x       y       z     vdW  Elec       q    Type
REMARK                         _______ _______ _______ _____ _____    ______ ____
ROOT
ATOM      1  C   UNL     1      52.690 154.510  26.767  0.00  0.00    +0.223 C 
ATOM      2  O   UNL     1      53.742 153.921  27.536  0.00  0.00    -0.445 OA
ATOM      3  C   UNL     1      53.462 152.980  28.505  0.00  0.00    +0.317 C 
ATOM      4  O   UNL     1      54.091 153.010  29.581  0.00  0.00    -0.250 OA
ATOM      5  C   UNL     1      52.437 151.967  28.264  0.00  0.00    +0.110 C 
ATOM      6  C   UNL     1      51.230 152.675  27.671  0.00  0.00    +0.016 C 
ATOM      7  C   UNL     1      51.598 153.553  26.518  0.00  0.00    +0.052 C 
ENDROOT
BRANCH   1   8
ATOM      8  C   UNL     1      52.197 155.637  27.628  0.00  0.00    +0.179 C 
ATOM      9  N   UNL     1      53.083 156.550  28.046  0.00  0.00    -0.227 NA
ATOM     10  C   UNL     1      52.808 157.607  28.773  0.00  0.00    +0.084 C 
ATOM     11  C   UNL     1      51.486 157.830  29.162  0.00  0.00    +0.037 C 
ATOM     12  C   UNL     1      50.552 156.899  28.740  0.00  0.00    +0.102 C 
ATOM     13  N   UNL     1      50.931 155.841  27.993  0.00  0.00    -0.226 NA
ATOM     14  C   UNL     1      51.156 158.917  29.916  0.00  0.00    +0.003 C 
ATOM     15  C   UNL     1      52.114 159.801  30.300  0.00  0.00    +0.000 C 
ATOM     16  C   UNL     1      53.409 159.555  29.901  0.00  0.00    +0.002 C 
ATOM     17  C   UNL     1      53.798 158.470  29.138  0.00  0.00    +0.019 C 
ENDBRANCH   1   8
BRANCH   1  18
ATOM     18  C   UNL     1      53.330 155.092  25.506  0.00  0.00    +0.196 C 
ATOM     19  O   UNL     1      52.511 156.210  25.208  0.00  0.00    -0.332 OA
ATOM     20  C   UNL     1      53.162 157.342  24.856  0.00  0.00    +0.208 C 
ATOM     21  C   UNL     1      54.432 157.155  24.103  0.00  0.00    +0.181 C 
ATOM     22  O   UNL     1      54.707 157.705  23.056  0.00  0.00    -0.293 OA
ATOM     23  C   UNL     1      55.416 156.216  24.696  0.00  0.00    +0.071 C 
ATOM     24  C   UNL     1      54.678 155.552  25.852  0.00  0.00    +0.056 C 
BRANCH  18  25
ATOM     25  N   UNL     1      53.135 154.247  24.395  0.00  0.00    -0.145 NA
ATOM     26  H   UNL     1      53.252 154.820  23.559  0.00  0.00    +0.152 HD
BRANCH  25  27
ATOM     27  S   UNL     1      54.121 152.908  24.213  0.00  0.00    +0.095 S 
ATOM     28  O   UNL     1      53.425 151.693  24.728  0.00  0.00    -0.141 OA
ATOM     29  O   UNL     1      54.380 152.668  22.738  0.00  0.00    -0.141 OA
BRANCH  27  30
ATOM     30  N   UNL     1      55.654 153.003  24.962  0.00  0.00    -0.193 NA
ATOM     31  H   UNL     1      55.534 153.165  25.962  0.00  0.00    +0.145 HD
ATOM     32  H   UNL     1      56.185 153.773  24.554  0.00  0.00    +0.145 HD
ENDBRANCH  27  30
ENDBRANCH  25  27
ENDBRANCH  18  25
ENDBRANCH   1  18
TORSDOF 5
REMARK  Name = =
REMARK  6 active torsions:
REMARK  status: ('A' for Active; 'I' for Inactive)
REMARK    1  A    between atoms: C_1  and  C_8
REMARK    2  A    between atoms: C_1  and  C_24
REMARK    3  A    between atoms: O_20  and  O_21
REMARK    4  A    between atoms: C_24  and  N_31
REMARK    5  A    between atoms: N_31  and  S_32
REMARK    6  A    between atoms: S_32  and  N_35
REMARK                            x       y       z     vdW  Elec       q    Type
REMARK                         _______ _______ _______ _____ _____    ______ ____
ROOT
ATOM      1  P   UNL     1      49.503 159.180  30.474  0.00  0.00    +0.000 P 
ENDROOT
TORSDOF 0
REMARK  Name = =
REMARK  6 active torsions:
REMARK  status: ('A' for Active; 'I' for Inactive)
REMARK    1  A    between atoms: C_1  and  C_8
REMARK    2  A    between atoms: C_1  and  C_24
REMARK    3  A    between atoms: O_20  and  O_21
REMARK    4  A    between atoms: C_24  and  N_31
REMARK    5  A    between atoms: N_31  and  S_32
REMARK    6  A    between atoms: S_32  and  N_35
REMARK                            x       y       z     vdW  Elec       q    Type
REMARK                         _______ _______ _______ _____ _____    ______ ____
ROOT
ATOM      1  O   HOH     1      49.621 160.324  29.588  0.00  0.00    -0.253 OA
ATOM      2  H   HOH     0      50.591 160.324  29.588  0.00  0.00    +0.253 HD
ENDROOT
TORSDOF 0
REMARK  Name = =
REMARK  6 active torsions:
REMARK  status: ('A' for Active; 'I' for Inactive)
REMARK    1  A    between atoms: C_1  and  C_8
REMARK    2  A    between atoms: C_1  and  C_24
REMARK    3  A    between atoms: O_20  and  O_21
REMARK    4  A    between atoms: C_24  and  N_31
REMARK    5  A    between atoms: N_31  and  S_32
REMARK    6  A    between atoms: S_32  and  N_35
REMARK                            x       y       z     vdW  Elec       q    Type
REMARK                         _______ _______ _______ _____ _____    ______ ____
ROOT
ATOM      1  O   UNL     1      48.128 158.236  30.489  0.00  0.00    -0.253 OA
ATOM      2  H   UNL     1      48.458 158.356  29.585  0.00  0.00    +0.253 HD
ENDROOT
BRANCH   1   3
ATOM      3  O   UNL     1      49.332 157.746  31.440  0.00  0.00    -0.253 OA
ATOM      4  H   UNL     1      49.002 157.626  32.344  0.00  0.00    +0.253 HD
ENDBRANCH   1   3
TORSDOF 1
REMARK  Name = =
REMARK  6 active torsions:
REMARK  status: ('A' for Active; 'I' for Inactive)
REMARK    1  A    between atoms: C_1  and  C_8
REMARK    2  A    between atoms: C_1  and  C_24
REMARK    3  A    between atoms: O_20  and  O_21
REMARK    4  A    between atoms: C_24  and  N_31
REMARK    5  A    between atoms: N_31  and  S_32
REMARK    6  A    between atoms: S_32  and  N_35
REMARK                            x       y       z     vdW  Elec       q    Type
REMARK                         _______ _______ _______ _____ _____    ______ ____
ROOT
ATOM      1  C   UNL     1      49.508 160.332  31.843  0.00  0.00    +0.000 C 
ATOM      2  C   UNL     1      50.440 161.247  31.989  0.00  0.00    +0.000 C 
ENDROOT
TORSDOF 0
