REMARK  Name = =
REMARK  3 active torsions:
REMARK  status: ('A' for Active; 'I' for Inactive)
REMARK    1  A    between atoms: C_1  and  C_7
REMARK    2  A    between atoms: C_4  and  O_10
REMARK    3  A    between atoms: C_7  and  O_9
REMARK                            x       y       z     vdW  Elec       q    Type
REMARK                         _______ _______ _______ _____ _____    ______ ____
ROOT
ATOM      1  C   UNL     1     -15.618 -42.682  27.713  0.00  0.00    +0.076 C 
ATOM      2  C   UNL     1     -14.918 -42.738  26.529  0.00  0.00    +0.010 C 
ATOM      3  C   UNL     1     -15.508 -42.373  25.338  0.00  0.00    +0.037 C 
ATOM      4  C   UNL     1     -16.815 -41.939  25.271  0.00  0.00    +0.134 C 
ATOM      5  C   UNL     1     -17.532 -41.877  26.447  0.00  0.00    +0.037 C 
ATOM      6  C   UNL     1     -16.942 -42.242  27.639  0.00  0.00    +0.010 C 
ENDROOT
BRANCH   1   7
ATOM      7  C   UNL     1     -15.029 -43.059  28.990  0.00  0.00    +0.338 C 
ATOM      8  O   UNL     1     -15.666 -43.113  30.067  0.00  0.00    -0.245 OA
BRANCH   7   9
ATOM      9  O   UNL     1     -13.683 -43.380  29.026  0.00  0.00    -0.477 OA
ATOM     10  H   UNL     1     -13.173 -43.351  28.240  0.00  0.00    +0.295 HD
ENDBRANCH   7   9
ENDBRANCH   1   7
BRANCH   4  11
ATOM     11  O   UNL     1     -17.406 -41.570  24.057  0.00  0.00    -0.506 OA
ATOM     12  H   UNL     1     -16.912 -41.615  23.262  0.00  0.00    +0.292 HD
ENDBRANCH   4  11
TORSDOF 3
