REMARK  Name = =
REMARK  0 active torsions:
REMARK  status: ('A' for Active; 'I' for Inactive)
REMARK                            x       y       z     vdW  Elec       q    Type
REMARK                         _______ _______ _______ _____ _____    ______ ____
ROOT
ATOM      1  N   UNL     1      -4.265  -3.341  31.396  0.00  0.00    -0.313 N 
ATOM      2  C   UNL     1      -3.004  -3.766  30.932  0.00  0.00    +0.301 C 
ATOM      3  O   UNL     1      -2.277  -2.922  30.370  0.00  0.00    -0.253 OA
ATOM      4  N   UNL     1      -2.602  -5.092  31.106  0.00  0.00    -0.259 N 
ATOM      5  C   UNL     1      -1.335  -5.638  30.672  0.00  0.00    +0.127 C 
ATOM      6  C   UNL     1      -1.549  -6.944  29.940  0.00  0.00    +0.164 C 
ATOM      7  O   UNL     1      -2.446  -7.761  30.591  0.00  0.00    -0.350 OA
ATOM      8  C   UNL     1      -2.739  -7.333  31.887  0.00  0.00    +0.164 C 
ATOM      9  C   UNL     1      -3.494  -6.039  31.771  0.00  0.00    +0.127 C 
ATOM     10  H   UNL     1      -4.865  -3.980  31.844  0.00  0.00    +0.146 HD
ATOM     11  H   UNL     1      -4.546  -2.406  31.272  0.00  0.00    +0.146 HD
ENDROOT
TORSDOF 0
