REMARK  Name = =
REMARK  1 active torsions:
REMARK  status: ('A' for Active; 'I' for Inactive)
REMARK    1  A    between atoms: C_8  and  C_10
REMARK                            x       y       z     vdW  Elec       q    Type
REMARK                         _______ _______ _______ _____ _____    ______ ____
ROOT
ATOM      1  N   UNL     1      -3.844  -1.444  30.663  0.00  0.00    -0.313 N 
ATOM      2  C   UNL     1      -3.016  -1.082  29.567  0.00  0.00    +0.301 C 
ATOM      3  O   UNL     1      -2.964   0.149  29.303  0.00  0.00    -0.253 OA
ATOM      4  N   UNL     1      -2.292  -2.044  28.812  0.00  0.00    -0.259 N 
ATOM      5  C   UNL     1      -1.469  -1.599  27.709  0.00  0.00    +0.127 C 
ATOM      6  C   UNL     1      -0.979  -2.858  27.010  0.00  0.00    +0.164 C 
ATOM      7  O   UNL     1      -0.336  -3.690  27.877  0.00  0.00    -0.347 OA
ATOM      8  C   UNL     1      -1.009  -4.126  28.975  0.00  0.00    +0.176 C 
ATOM      9  C   UNL     1      -2.345  -3.451  29.095  0.00  0.00    +0.131 C 
ATOM     10  H   UNL     1      -4.331  -0.749  31.163  0.00  0.00    +0.146 HD
ATOM     11  H   UNL     1      -3.931  -2.390  30.923  0.00  0.00    +0.146 HD
ENDROOT
BRANCH   8  12
ATOM     12  C   UNL     1      -1.113  -5.590  29.079  0.00  0.00    +0.105 C 
ATOM     13  C   UNL     1      -0.280  -6.380  28.323  0.00  0.00    +0.097 C 
ATOM     14  C   UNL     1      -0.359  -7.778  28.409  0.00  0.00    +0.020 C 
ATOM     15  C   UNL     1      -1.288  -8.339  29.266  0.00  0.00    +0.022 C 
ATOM     16  C   UNL     1      -2.108  -7.518  30.008  0.00  0.00    +0.099 C 
ATOM     17  N   UNL     1      -1.996  -6.171  29.892  0.00  0.00    -0.244 NA
ATOM     18  C   UNL     1       0.454  -8.608  27.671  0.00  0.00    +0.003 C 
ATOM     19  C   UNL     1       1.378  -8.055  26.817  0.00  0.00    +0.021 C 
ATOM     20  C   UNL     1       1.449  -6.668  26.737  0.00  0.00    +0.099 C 
ATOM     21  N   UNL     1       0.639  -5.899  27.475  0.00  0.00    -0.243 NA
ENDBRANCH   8  12
TORSDOF 1
