REMARK  Name = =
REMARK  2 active torsions:
REMARK  status: ('A' for Active; 'I' for Inactive)
REMARK    1  A    between atoms: C_1  and  C_32
REMARK    2  A    between atoms: C_4  and  C_11
REMARK                            x       y       z     vdW  Elec       q    Type
REMARK                         _______ _______ _______ _____ _____    ______ ____
ROOT
ATOM      1  C   UNL     1       1.113  -4.316  28.078  0.00  0.00    +0.105 C 
ATOM      2  C   UNL     1       1.462  -3.008  27.848  0.00  0.00    +0.097 C 
ATOM      3  C   UNL     1       2.113  -2.695  26.655  0.00  0.00    +0.020 C 
ATOM      4  C   UNL     1       2.395  -3.697  25.732  0.00  0.00    +0.021 C 
ATOM      5  C   UNL     1       2.022  -4.986  26.012  0.00  0.00    +0.099 C 
ATOM      6  N   UNL     1       1.400  -5.241  27.167  0.00  0.00    -0.244 NA
ATOM      7  C   UNL     1       2.437  -1.371  26.441  0.00  0.00    +0.003 C 
ATOM      8  C   UNL     1       2.140  -0.368  27.364  0.00  0.00    +0.021 C 
ATOM      9  C   UNL     1       1.499  -0.738  28.522  0.00  0.00    +0.099 C 
ATOM     10  N   UNL     1       1.184  -2.027  28.728  0.00  0.00    -0.243 NA
ENDROOT
BRANCH   4  11
ATOM     11  C   UNL     1       3.157  -3.334  24.544  0.00  0.00    +0.003 C 
ATOM     12  C   UNL     1       4.494  -3.741  24.425  0.00  0.00    +0.000 C 
ATOM     13  C   UNL     1       5.154  -3.417  23.265  0.00  0.00    +0.002 C 
ATOM     14  C   UNL     1       4.567  -2.727  22.242  0.00  0.00    +0.019 C 
ATOM     15  C   UNL     1       3.253  -2.334  22.377  0.00  0.00    +0.081 C 
ATOM     16  C   UNL     1       2.543  -2.639  23.533  0.00  0.00    +0.018 C 
ATOM     17  C   UNL     1       1.230  -2.210  23.605  0.00  0.00    +0.003 C 
ATOM     18  C   UNL     1       0.615  -1.507  22.591  0.00  0.00    +0.018 C 
ATOM     19  C   UNL     1       1.373  -1.228  21.453  0.00  0.00    +0.081 C 
ATOM     20  N   UNL     1       2.644  -1.645  21.385  0.00  0.00    -0.245 NA
ATOM     21  C   UNL     1       0.786  -0.525  20.418  0.00  0.00    +0.019 C 
ATOM     22  C   UNL     1      -0.524  -0.094  20.483  0.00  0.00    +0.002 C 
ATOM     23  C   UNL     1      -1.286  -0.363  21.601  0.00  0.00    +0.000 C 
ATOM     24  C   UNL     1      -0.682  -1.065  22.624  0.00  0.00    +0.001 C 
ENDBRANCH   4  11
BRANCH   1  32
ATOM     25  N   UNL     1       1.242  -6.912  32.630  0.00  0.00    -0.313 N 
ATOM     26  C   UNL     1       0.025  -7.040  31.925  0.00  0.00    +0.301 C 
ATOM     27  O   UNL     1      -0.950  -7.566  32.544  0.00  0.00    -0.253 OA
ATOM     28  N   UNL     1      -0.152  -6.619  30.597  0.00  0.00    -0.259 N 
ATOM     29  C   UNL     1      -1.424  -6.788  29.953  0.00  0.00    +0.127 C 
ATOM     30  C   UNL     1      -1.679  -5.632  29.044  0.00  0.00    +0.164 C 
ATOM     31  O   UNL     1      -0.920  -4.528  29.303  0.00  0.00    -0.347 OA
ATOM     32  C   UNL     1       0.439  -4.695  29.334  0.00  0.00    +0.176 C 
ATOM     33  C   UNL     1       0.920  -6.016  29.864  0.00  0.00    +0.131 C 
ATOM     34  H   UNL     1       1.307  -7.226  33.561  0.00  0.00    +0.146 HD
ATOM     35  H   UNL     1       2.025  -6.509  32.191  0.00  0.00    +0.146 HD
ENDBRANCH   1  32
TORSDOF 2
