REMARK  Name = =
REMARK  3 active torsions:
REMARK  status: ('A' for Active; 'I' for Inactive)
REMARK    1  A    between atoms: C_1  and  C_18
REMARK    2  A    between atoms: C_4  and  C_29
REMARK    3  A    between atoms: N_22  and  C_23
REMARK                            x       y       z     vdW  Elec       q    Type
REMARK                         _______ _______ _______ _____ _____    ______ ____
ROOT
ATOM      1  C   UNL     1     -10.964  -3.128  23.530  0.00  0.00    +0.105 C 
ATOM      2  C   UNL     1     -11.476  -3.000  22.272  0.00  0.00    +0.097 C 
ATOM      3  C   UNL     1     -10.656  -3.005  21.109  0.00  0.00    +0.020 C 
ATOM      4  C   UNL     1      -9.299  -3.139  21.302  0.00  0.00    +0.021 C 
ATOM      5  C   UNL     1      -8.849  -3.257  22.585  0.00  0.00    +0.099 C 
ATOM      6  N   UNL     1      -9.603  -3.266  23.671  0.00  0.00    -0.244 NA
ATOM      7  C   UNL     1     -11.204  -2.920  19.889  0.00  0.00    +0.003 C 
ATOM      8  C   UNL     1     -12.583  -2.816  19.700  0.00  0.00    +0.021 C 
ATOM      9  C   UNL     1     -13.362  -2.815  20.879  0.00  0.00    +0.099 C 
ATOM     10  N   UNL     1     -12.818  -2.900  22.065  0.00  0.00    -0.243 NA
ENDROOT
BRANCH   1  18
ATOM     11  N   UNL     1     -11.255  -2.468  28.844  0.00  0.00    -0.224 N 
ATOM     12  C   UNL     1     -10.172  -1.505  27.816  0.00  0.00    +0.311 C 
ATOM     13  O   UNL     1      -9.365  -0.967  28.381  0.00  0.00    -0.252 OA
ATOM     14  N   UNL     1     -10.654  -1.643  26.533  0.00  0.00    -0.258 N 
ATOM     15  C   UNL     1     -10.733  -0.541  25.566  0.00  0.00    +0.127 C 
ATOM     16  C   UNL     1     -11.909  -0.718  24.669  0.00  0.00    +0.164 C 
ATOM     17  O   UNL     1     -12.582  -1.899  24.664  0.00  0.00    -0.347 OA
ATOM     18  C   UNL     1     -11.811  -3.076  24.788  0.00  0.00    +0.176 C 
ATOM     19  C   UNL     1     -10.884  -2.925  25.935  0.00  0.00    +0.131 C 
ATOM     20  C   UNL     1     -10.527  -2.322  29.988  0.00  0.00    +0.309 C 
ATOM     21  O   UNL     1      -9.306  -2.211  30.223  0.00  0.00    -0.252 OA
ATOM     22  N   UNL     1     -11.441  -2.341  31.173  0.00  0.00    -0.264 N 
ATOM     23  H   UNL     1     -12.095  -2.945  28.653  0.00  0.00    +0.161 HD
ATOM     24  H   UNL     1     -12.413  -2.371  31.020  0.00  0.00    +0.153 HD
BRANCH  22  25
ATOM     25  C   UNL     1     -10.958  -2.318  32.517  0.00  0.00    +0.194 C 
ATOM     26  N   UNL     1     -11.945  -1.799  33.354  0.00  0.00    -0.270 NA
ATOM     27  C   UNL     1     -12.129  -2.287  34.658  0.00  0.00    +0.072 C 
ATOM     28  C   UNL     1     -12.061  -3.796  34.662  0.00  0.00    +0.034 C 
ATOM     29  C   UNL     1     -10.804  -4.245  33.976  0.00  0.00    +0.072 C 
ATOM     30  N   UNL     1     -10.510  -3.651  32.771  0.00  0.00    -0.270 NA
ATOM     31  H   UNL     1     -12.833  -1.931  32.869  0.00  0.00    +0.126 HD
ATOM     32  H   UNL     1      -9.494  -3.644  32.683  0.00  0.00    +0.126 HD
ENDBRANCH  22  25
ENDBRANCH   1  18
BRANCH   4  33
ATOM     33  C   UNL     1      -8.354  -3.238  20.225  0.00  0.00    +0.003 C 
ATOM     34  C   UNL     1      -7.743  -2.034  19.830  0.00  0.00    +0.000 C 
ATOM     35  C   UNL     1      -6.781  -2.095  18.841  0.00  0.00    +0.002 C 
ATOM     36  C   UNL     1      -6.414  -3.270  18.236  0.00  0.00    +0.019 C 
ATOM     37  C   UNL     1      -7.011  -4.428  18.627  0.00  0.00    +0.081 C 
ATOM     38  C   UNL     1      -8.002  -4.442  19.633  0.00  0.00    +0.018 C 
ATOM     39  C   UNL     1      -8.617  -5.604  20.035  0.00  0.00    +0.003 C 
ATOM     40  C   UNL     1      -8.261  -6.766  19.444  0.00  0.00    +0.018 C 
ATOM     41  C   UNL     1      -7.303  -6.803  18.463  0.00  0.00    +0.081 C 
ATOM     42  N   UNL     1      -6.697  -5.624  18.077  0.00  0.00    -0.245 NA
ATOM     43  C   UNL     1      -6.966  -8.001  17.898  0.00  0.00    +0.019 C 
ATOM     44  C   UNL     1      -7.609  -9.140  18.342  0.00  0.00    +0.002 C 
ATOM     45  C   UNL     1      -8.560  -9.125  19.315  0.00  0.00    +0.000 C 
ATOM     46  C   UNL     1      -8.906  -7.902  19.892  0.00  0.00    +0.001 C 
ENDBRANCH   4  33
TORSDOF 3
