REMARK  Name = =
REMARK  5 active torsions:
REMARK  status: ('A' for Active; 'I' for Inactive)
REMARK    1  A    between atoms: C_1  and  C_7
REMARK    2  A    between atoms: C_1  and  S_22
REMARK    3  A    between atoms: C_7  and  C_16
REMARK    4  A    between atoms: C_18  and  O_21
REMARK    5  A    between atoms: C_23  and  C_27
REMARK                            x       y       z     vdW  Elec       q    Type
REMARK                         _______ _______ _______ _____ _____    ______ ____
ROOT
ATOM      1  C   UNL     1     -11.371 -43.079  30.830  0.00  0.00    +0.206 C 
ATOM      2  O   UNL     1     -10.857 -43.553  32.160  0.00  0.00    -0.437 OA
ATOM      3  C   UNL     1     -10.828 -42.504  33.024  0.00  0.00    +0.342 C 
ATOM      4  O   UNL     1     -10.435 -42.510  34.237  0.00  0.00    -0.245 OA
ATOM      5  C   UNL     1     -11.321 -41.337  32.363  0.00  0.00    +0.082 C 
ATOM      6  C   UNL     1     -11.628 -41.721  31.100  0.00  0.00    +0.031 C 
ENDROOT
BRANCH   1   7
ATOM      7  C   UNL     1     -10.166 -43.319  29.940  0.00  0.00    +0.166 C 
ATOM      8  S   UNL     1      -9.467 -41.854  29.209  0.00  0.00    -0.113 S 
ATOM      9  C   UNL     1      -9.963 -42.131  27.497  0.00  0.00    +0.081 C 
ATOM     10  C   UNL     1     -10.867 -43.312  27.610  0.00  0.00    +0.107 C 
ATOM     11  N   UNL     1     -10.686 -44.076  28.782  0.00  0.00    -0.259 N 
ATOM     12  C   UNL     1     -10.965 -45.467  28.894  0.00  0.00    +0.304 C 
ATOM     13  O   UNL     1     -11.414 -46.142  27.913  0.00  0.00    -0.265 OA
BRANCH   7  16
ATOM     14  F   UNL     1      -7.720 -42.177  30.584  0.00  0.00    -0.204 F 
ATOM     15  C   UNL     1      -7.881 -43.525  30.786  0.00  0.00    +0.139 C 
ATOM     16  C   UNL     1      -9.096 -44.166  30.504  0.00  0.00    +0.038 C 
ATOM     17  C   UNL     1      -9.166 -45.502  30.730  0.00  0.00    +0.037 C 
ATOM     18  C   UNL     1      -8.111 -46.280  31.224  0.00  0.00    +0.134 C 
ATOM     19  C   UNL     1      -6.931 -45.640  31.495  0.00  0.00    +0.039 C 
ATOM     20  C   UNL     1      -6.845 -44.283  31.271  0.00  0.00    +0.032 C 
BRANCH  18  21
ATOM     21  O   UNL     1      -8.253 -47.639  31.429  0.00  0.00    -0.506 OA
ATOM     22  H   UNL     1      -9.068 -48.059  31.238  0.00  0.00    +0.292 HD
ENDBRANCH  18  21
ENDBRANCH   7  16
ENDBRANCH   1   7
BRANCH   1  23
ATOM     23  S   UNL     1     -12.634 -44.226  30.556  0.00  0.00    -0.174 S 
ATOM     24  C   UNL     1     -14.286 -44.076  31.095  0.00  0.00    +0.057 C 
ATOM     25  C   UNL     1     -14.791 -43.224  29.943  0.00  0.00    +0.079 C 
ATOM     26  N   UNL     1     -14.293 -43.670  28.715  0.00  0.00    -0.289 NA
ATOM     27  C   UNL     1     -13.232 -44.612  28.849  0.00  0.00    +0.111 C 
ATOM     28  H   UNL     1     -11.809 -45.053  31.252  0.00  0.00    +0.089 HD
ATOM     29  H   UNL     1     -15.054 -44.110  28.197  0.00  0.00    +0.124 HD
BRANCH  24  30
ATOM     30  C   UNL     1     -14.658 -43.645  32.406  0.00  0.00    +0.054 C 
ATOM     31  C   UNL     1     -13.705 -43.555  33.518  0.00  0.00    -0.021 C 
ATOM     32  C   UNL     1     -13.854 -42.169  34.151  0.00  0.00    -0.005 C 
ATOM     33  C   UNL     1     -14.787 -41.499  33.256  0.00  0.00    -0.005 C 
ATOM     34  C   UNL     1     -15.231 -42.280  32.311  0.00  0.00    -0.021 C 
ENDBRANCH  24  30
ENDBRANCH   1  23
TORSDOF 5
