REMARK  Name = =
REMARK  7 active torsions:
REMARK  status: ('A' for Active; 'I' for Inactive)
REMARK    1  A    between atoms: C_1  and  C_7
REMARK    2  A    between atoms: C_1  and  S_24
REMARK    3  A    between atoms: C_7  and  C_16
REMARK    4  A    between atoms: C_17  and  C_21
REMARK    5  A    between atoms: C_18  and  O_23
REMARK    6  A    between atoms: C_25  and  C_29
REMARK    7  A    between atoms: C_26  and  O_34
REMARK                            x       y       z     vdW  Elec       q    Type
REMARK                         _______ _______ _______ _____ _____    ______ ____
ROOT
ATOM      1  C   UNL     1     -10.791 -43.433  30.712  0.00  0.00    +0.206 C 
ATOM      2  O   UNL     1     -10.763 -42.095  30.476  0.00  0.00    -0.437 OA
ATOM      3  C   UNL     1     -10.946 -41.693  29.183  0.00  0.00    +0.342 C 
ATOM      4  O   UNL     1     -10.953 -40.514  28.765  0.00  0.00    -0.245 OA
ATOM      5  C   UNL     1     -11.127 -42.925  28.436  0.00  0.00    +0.082 C 
ATOM      6  C   UNL     1     -11.047 -43.919  29.261  0.00  0.00    +0.031 C 
ENDROOT
BRANCH   1   7
ATOM      7  C   UNL     1      -9.525 -44.143  31.052  0.00  0.00    +0.166 C 
ATOM      8  S   UNL     1     -10.094 -45.855  31.385  0.00  0.00    -0.113 S 
ATOM      9  C   UNL     1      -9.373 -46.654  29.950  0.00  0.00    +0.081 C 
ATOM     10  C   UNL     1      -8.810 -45.534  29.188  0.00  0.00    +0.107 C 
ATOM     11  N   UNL     1      -8.742 -44.285  29.832  0.00  0.00    -0.259 N 
ATOM     12  C   UNL     1      -7.923 -43.211  29.288  0.00  0.00    +0.304 C 
ATOM     13  O   UNL     1      -7.873 -42.117  29.866  0.00  0.00    -0.265 OA
BRANCH   7  16
ATOM     14  F   UNL     1      -6.944 -44.856  30.983  0.00  0.00    -0.204 F 
ATOM     15  C   UNL     1      -7.317 -44.082  32.002  0.00  0.00    +0.138 C 
ATOM     16  C   UNL     1      -8.674 -43.677  32.129  0.00  0.00    +0.035 C 
ATOM     17  C   UNL     1      -8.930 -42.902  33.174  0.00  0.00    +0.024 C 
ATOM     18  C   UNL     1      -7.938 -42.503  34.102  0.00  0.00    +0.130 C 
ATOM     19  C   UNL     1      -6.658 -42.913  33.943  0.00  0.00    +0.039 C 
ATOM     20  C   UNL     1      -6.346 -43.708  32.884  0.00  0.00    +0.032 C 
BRANCH  17  21
ATOM     21  C   UNL     1     -10.202 -42.298  33.440  0.00  0.00    +0.098 C 
ATOM     22  S   UNL     1     -10.180 -40.677  33.800  0.00  0.00    -0.077 S 
ENDBRANCH  17  21
BRANCH  18  23
ATOM     23  O   UNL     1      -8.269 -41.695  35.174  0.00  0.00    -0.506 OA
ATOM     24  H   UNL     1      -9.154 -41.408  35.289  0.00  0.00    +0.292 HD
ENDBRANCH  18  23
ENDBRANCH   7  16
ENDBRANCH   1   7
BRANCH   1  25
ATOM     25  S   UNL     1     -12.214 -43.960  31.544  0.00  0.00    -0.172 S 
ATOM     26  C   UNL     1     -13.687 -42.917  31.366  0.00  0.00    +0.075 C 
ATOM     27  C   UNL     1     -14.530 -43.809  30.456  0.00  0.00    +0.178 C 
ATOM     28  N   UNL     1     -14.374 -45.134  31.017  0.00  0.00    -0.267 NA
ATOM     29  C   UNL     1     -13.007 -45.482  30.856  0.00  0.00    +0.113 C 
ATOM     30  H   UNL     1     -11.667 -44.034  32.787  0.00  0.00    +0.089 HD
ATOM     31  H   UNL     1     -14.968 -45.799  30.521  0.00  0.00    +0.126 HD
BRANCH  26  32
ATOM     32  C   UNL     1     -14.350 -42.650  32.663  0.00  0.00    +0.012 C 
ATOM     33  C   UNL     1     -13.364 -42.038  33.625  0.00  0.00    +0.001 C 
ATOM     34  C   UNL     1     -14.217 -41.152  34.524  0.00  0.00    +0.000 C 
ATOM     35  C   UNL     1     -15.324 -40.750  33.616  0.00  0.00    +0.000 C 
ATOM     36  C   UNL     1     -15.388 -41.591  32.586  0.00  0.00    +0.001 C 
ENDBRANCH  26  32
BRANCH  27  37
ATOM     37  O   UNL     1     -15.831 -43.415  30.339  0.00  0.00    -0.369 OA
ATOM     38  H   UNL     1     -16.302 -44.025  29.750  0.00  0.00    +0.212 HD
ENDBRANCH  27  37
ENDBRANCH   1  25
TORSDOF 7
