REMARK  Name = =
REMARK  2 active torsions:
REMARK  status: ('A' for Active; 'I' for Inactive)
REMARK    1  A    between atoms: C_1  and  C_6
REMARK    2  A    between atoms: C_7  and  C_8
REMARK                            x       y       z     vdW  Elec       q    Type
REMARK                         _______ _______ _______ _____ _____    ______ ____
ROOT
ATOM      1  C   UNL     1      -5.181  -2.489  31.503  0.00  0.00    +0.260 C 
ATOM      2  O   UNL     1      -6.483  -2.550  31.079  0.00  0.00    -0.324 OA
ATOM      3  C   UNL     1      -7.073  -1.498  31.802  0.00  0.00    +0.177 C 
ATOM      4  C   UNL     1      -5.919  -0.572  32.164  0.00  0.00    +0.177 C 
ATOM      5  O   UNL     1      -4.888  -1.115  31.405  0.00  0.00    -0.324 OA
ENDROOT
BRANCH   1   6
ATOM      6  C   UNL     1      -4.253  -3.289  30.662  0.00  0.00    +0.038 C 
ATOM      7  C   UNL     1      -2.952  -3.043  30.622  0.00  0.00    +0.046 C 
BRANCH   7   8
ATOM      8  C   UNL     1      -2.126  -3.878  29.772  0.00  0.00    +0.234 C 
ATOM      9  O   UNL     1      -0.894  -3.671  29.742  0.00  0.00    -0.283 OA
ENDBRANCH   7   8
ENDBRANCH   1   6
TORSDOF 2
