REMARK  Name = =
REMARK  0 active torsions:
REMARK  status: ('A' for Active; 'I' for Inactive)
REMARK                            x       y       z     vdW  Elec       q    Type
REMARK                         _______ _______ _______ _____ _____    ______ ____
ROOT
ATOM      1  C   UNL     1      51.871 155.208  29.057  0.00  0.00    +0.120 C 
ATOM      2  C   UNL     1      50.783 156.204  29.398  0.00  0.00    +0.035 C 
ATOM      3  C   UNL     1      51.526 157.516  29.506  0.00  0.00    +0.064 C 
ATOM      4  C   UNL     1      52.793 157.177  28.710  0.00  0.00    +0.235 C 
ATOM      5  O   UNL     1      53.075 155.915  29.266  0.00  0.00    -0.333 OA
ATOM      6  O   UNL     1      52.412 157.092  27.385  0.00  0.00    -0.330 OA
ATOM      7  C   UNL     1      52.783 155.832  26.890  0.00  0.00    +0.147 C 
ATOM      8  C   UNL     1      51.862 154.831  27.592  0.00  0.00    +0.062 C 
ENDROOT
TORSDOF 0
