REMARK  Name = =
REMARK  0 active torsions:
REMARK  status: ('A' for Active; 'I' for Inactive)
REMARK                            x       y       z     vdW  Elec       q    Type
REMARK                         _______ _______ _______ _____ _____    ______ ____
ROOT
ATOM      1  C   UNL     1      52.193 155.102  27.788  0.00  0.00    +0.141 C 
ATOM      2  C   UNL     1      52.864 156.345  27.209  0.00  0.00    +0.043 C 
ATOM      3  C   UNL     1      53.149 155.900  25.798  0.00  0.00    +0.065 C 
ATOM      4  C   UNL     1      52.291 154.671  25.669  0.00  0.00    +0.236 C 
ATOM      5  O   UNL     1      51.381 154.698  26.725  0.00  0.00    -0.325 OA
ATOM      6  O   UNL     1      53.100 153.555  25.690  0.00  0.00    -0.330 OA
ATOM      7  C   UNL     1      53.266 152.999  26.933  0.00  0.00    +0.148 C 
ATOM      8  C   UNL     1      53.169 154.004  28.062  0.00  0.00    +0.069 C 
ATOM      9  I   UNL     1      51.088 155.693  29.486  0.00  0.00    -0.045 I 
ENDROOT
TORSDOF 0
