REMARK  Name = =
REMARK  2 active torsions:
REMARK  status: ('A' for Active; 'I' for Inactive)
REMARK    1  A    between atoms: N_10  and  C_11
REMARK    2  A    between atoms: N_10  and  O_13
REMARK                            x       y       z     vdW  Elec       q    Type
REMARK                         _______ _______ _______ _____ _____    ______ ____
ROOT
ATOM      1  C   UNL     1      52.257 154.945  27.783  0.00  0.00    +0.144 C 
ATOM      2  C   UNL     1      52.984 155.837  26.796  0.00  0.00    +0.041 C 
ATOM      3  C   UNL     1      53.233 154.823  25.669  0.00  0.00    +0.079 C 
ATOM      4  C   UNL     1      52.155 153.797  25.945  0.00  0.00    +0.288 C 
ATOM      5  O   UNL     1      51.328 154.325  26.920  0.00  0.00    -0.318 OA
ATOM      6  O   UNL     1      52.674 152.607  26.440  0.00  0.00    -0.450 OA
ATOM      7  C   UNL     1      53.477 152.761  27.533  0.00  0.00    +0.173 C 
ATOM      8  C   UNL     1      53.251 153.979  28.342  0.00  0.00    +0.043 C 
ENDROOT
TORSDOF 0
REMARK  Name = =
REMARK  2 active torsions:
REMARK  status: ('A' for Active; 'I' for Inactive)
REMARK    1  A    between atoms: N_10  and  C_11
REMARK    2  A    between atoms: N_10  and  O_13
REMARK                            x       y       z     vdW  Elec       q    Type
REMARK                         _______ _______ _______ _____ _____    ______ ____
ROOT
ATOM      1  I   UNL     1      51.190 156.015  29.236  0.00  0.00    -0.107 I 
ATOM      2  H   UNL     1      52.751 156.015  29.236  0.00  0.00    +0.107 HD
ENDROOT
TORSDOF 0
REMARK  Name = =
REMARK  2 active torsions:
REMARK  status: ('A' for Active; 'I' for Inactive)
REMARK    1  A    between atoms: N_10  and  C_11
REMARK    2  A    between atoms: N_10  and  O_13
REMARK                            x       y       z     vdW  Elec       q    Type
REMARK                         _______ _______ _______ _____ _____    ______ ____
ROOT
ATOM      1  N   UNL     1      52.073 157.848  29.509  0.00  0.00    -0.057 NA
ENDROOT
BRANCH   1   2
ATOM      2  C   UNL     1      51.324 158.956  29.958  0.00  0.00    +0.347 C 
ATOM      3  O   UNL     1      50.090 158.789  30.188  0.00  0.00    -0.261 OA
ENDBRANCH   1   2
BRANCH   1   4
ATOM      4  O   UNL     1      53.384 158.008  29.260  0.00  0.00    -0.273 OA
ATOM      5  H   UNL     1      53.761 157.166  28.961  0.00  0.00    +0.244 HD
ENDBRANCH   1   4
TORSDOF 2
