REMARK  Name = =
REMARK  6 active torsions:
REMARK  status: ('A' for Active; 'I' for Inactive)
REMARK    1  A    between atoms: N_1  and  C_2
REMARK    2  A    between atoms: N_1  and  O_13
REMARK    3  A    between atoms: C_2  and  S_14
REMARK    4  A    between atoms: S_14  and  P_15
REMARK    5  A    between atoms: P_15  and  O_17
REMARK    6  A    between atoms: P_15  and  O_18
REMARK                            x       y       z     vdW  Elec       q    Type
REMARK                         _______ _______ _______ _____ _____    ______ ____
ROOT
ATOM      1  S   UNL     1      51.612 159.679  31.361  0.00  0.00    +0.024 S 
ENDROOT
BRANCH   1   2
ATOM      2  C   UNL     1      51.279 158.877  29.808  0.00  0.00    +0.325 C 
ATOM      3  O   UNL     1      50.150 158.965  29.270  0.00  0.00    -0.258 OA
BRANCH   2   4
ATOM      4  N   UNL     1      52.285 158.133  29.166  0.00  0.00    -0.055 NA
BRANCH   4   5
ATOM      5  O   UNL     1      53.522 158.020  29.727  0.00  0.00    -0.272 OA
ATOM      6  H   UNL     1      54.088 157.477  29.156  0.00  0.00    +0.244 HD
ENDBRANCH   4   5
ENDBRANCH   2   4
ENDBRANCH   1   2
BRANCH   1   7
ATOM      7  P   UNL     1      50.040 160.992  31.817  0.00  0.00    +0.233 P 
ATOM      8  S   UNL     1      48.948 160.267  32.921  0.00  0.00    +0.003 S 
BRANCH   7   9
ATOM      9  O   UNL     1      49.183 161.429  30.422  0.00  0.00    -0.339 OA
ATOM     10  H   UNL     1      49.789 161.841  29.786  0.00  0.00    +0.218 HD
ENDBRANCH   7   9
BRANCH   7  11
ATOM     11  O   UNL     1      50.708 162.381  32.521  0.00  0.00    -0.339 OA
ATOM     12  H   UNL     1      51.199 162.134  33.320  0.00  0.00    +0.218 HD
ENDBRANCH   7  11
ENDBRANCH   1   7
TORSDOF 6
REMARK  Name = =
REMARK  6 active torsions:
REMARK  status: ('A' for Active; 'I' for Inactive)
REMARK    1  A    between atoms: N_1  and  C_2
REMARK    2  A    between atoms: N_1  and  O_13
REMARK    3  A    between atoms: C_2  and  S_14
REMARK    4  A    between atoms: S_14  and  P_15
REMARK    5  A    between atoms: P_15  and  O_17
REMARK    6  A    between atoms: P_15  and  O_18
REMARK                            x       y       z     vdW  Elec       q    Type
REMARK                         _______ _______ _______ _____ _____    ______ ____
ROOT
ATOM      1  I   UNL     1      51.954 157.186  27.369  0.00  0.00    -0.107 I 
ATOM      2  H   UNL     1      53.515 157.186  27.369  0.00  0.00    +0.107 HD
ENDROOT
TORSDOF 0
REMARK  Name = =
REMARK  6 active torsions:
REMARK  status: ('A' for Active; 'I' for Inactive)
REMARK    1  A    between atoms: N_1  and  C_2
REMARK    2  A    between atoms: N_1  and  O_13
REMARK    3  A    between atoms: C_2  and  S_14
REMARK    4  A    between atoms: S_14  and  P_15
REMARK    5  A    between atoms: P_15  and  O_17
REMARK    6  A    between atoms: P_15  and  O_18
REMARK                            x       y       z     vdW  Elec       q    Type
REMARK                         _______ _______ _______ _____ _____    ______ ____
ROOT
ATOM      1  C   UNL     1      52.182 155.121  27.718  0.00  0.00    +0.120 C 
ATOM      2  C   UNL     1      53.550 154.661  27.297  0.00  0.00    +0.035 C 
ATOM      3  C   UNL     1      53.201 153.447  26.434  0.00  0.00    +0.064 C 
ATOM      4  C   UNL     1      51.845 153.103  27.011  0.00  0.00    +0.235 C 
ATOM      5  O   UNL     1      51.243 154.366  27.000  0.00  0.00    -0.333 OA
ATOM      6  O   UNL     1      51.889 152.510  28.233  0.00  0.00    -0.330 OA
ATOM      7  C   UNL     1      52.266 153.270  29.297  0.00  0.00    +0.147 C 
ATOM      8  C   UNL     1      51.999 154.740  29.171  0.00  0.00    +0.062 C 
ENDROOT
TORSDOF 0
