REMARK  Name = =
REMARK  7 active torsions:
REMARK  status: ('A' for Active; 'I' for Inactive)
REMARK    1  A    between atoms: N_1  and  C_2
REMARK    2  A    between atoms: N_1  and  O_13
REMARK    3  A    between atoms: C_2  and  S_14
REMARK    4  A    between atoms: S_14  and  P_15
REMARK    5  A    between atoms: P_15  and  O_17
REMARK    6  A    between atoms: P_15  and  O_18
REMARK    7  A    between atoms: O_18  and  C_19
REMARK                            x       y       z     vdW  Elec       q    Type
REMARK                         _______ _______ _______ _____ _____    ______ ____
ROOT
ATOM      1  P   UNL     1      50.309 160.497  30.329  0.00  0.00    +0.286 P 
ATOM      2  S   UNL     1      50.170 159.907  31.958  0.00  0.00    +0.017 S 
ENDROOT
BRANCH   1   3
ATOM      3  O   UNL     1      48.836 161.202  29.875  0.00  0.00    -0.331 OA
ATOM      4  H   UNL     1      48.131 160.538  29.924  0.00  0.00    +0.219 HD
ENDBRANCH   1   3
BRANCH   1   5
ATOM      5  S   UNL     1      50.687 158.878  29.039  0.00  0.00    +0.036 S 
BRANCH   5   6
ATOM      6  C   UNL     1      50.514 157.321  29.879  0.00  0.00    +0.326 C 
ATOM      7  O   UNL     1      49.592 157.216  30.741  0.00  0.00    -0.258 OA
BRANCH   6   8
ATOM      8  N   UNL     1      51.390 156.254  29.572  0.00  0.00    -0.055 NA
BRANCH   8   9
ATOM      9  O   UNL     1      51.227 155.078  30.243  0.00  0.00    -0.272 OA
ATOM     10  H   UNL     1      51.888 154.437  29.938  0.00  0.00    +0.244 HD
ENDBRANCH   8   9
ENDBRANCH   6   8
ENDBRANCH   5   6
ENDBRANCH   1   5
BRANCH   1  11
ATOM     11  O   UNL     1      51.557 161.672  30.243  0.00  0.00    -0.433 OA
BRANCH  11  12
ATOM     12  C   UNL     1      52.562 161.620  31.209  0.00  0.00    +0.179 C 
ATOM     13  C   UNL     1      53.764 162.122  30.988  0.00  0.00    +0.044 C 
ENDBRANCH  11  12
ENDBRANCH   1  11
TORSDOF 7
REMARK  Name = =
REMARK  7 active torsions:
REMARK  status: ('A' for Active; 'I' for Inactive)
REMARK    1  A    between atoms: N_1  and  C_2
REMARK    2  A    between atoms: N_1  and  O_13
REMARK    3  A    between atoms: C_2  and  S_14
REMARK    4  A    between atoms: S_14  and  P_15
REMARK    5  A    between atoms: P_15  and  O_17
REMARK    6  A    between atoms: P_15  and  O_18
REMARK    7  A    between atoms: O_18  and  C_19
REMARK                            x       y       z     vdW  Elec       q    Type
REMARK                         _______ _______ _______ _____ _____    ______ ____
ROOT
ATOM      1  I   UNL     1      52.863 156.536  28.136  0.00  0.00    -0.107 I 
ATOM      2  H   UNL     1      54.424 156.536  28.136  0.00  0.00    +0.107 HD
ENDROOT
TORSDOF 0
REMARK  Name = =
REMARK  7 active torsions:
REMARK  status: ('A' for Active; 'I' for Inactive)
REMARK    1  A    between atoms: N_1  and  C_2
REMARK    2  A    between atoms: N_1  and  O_13
REMARK    3  A    between atoms: C_2  and  S_14
REMARK    4  A    between atoms: S_14  and  P_15
REMARK    5  A    between atoms: P_15  and  O_17
REMARK    6  A    between atoms: P_15  and  O_18
REMARK    7  A    between atoms: O_18  and  C_19
REMARK                            x       y       z     vdW  Elec       q    Type
REMARK                         _______ _______ _______ _____ _____    ______ ____
ROOT
ATOM      1  C   UNL     1      52.969 154.747  27.035  0.00  0.00    +0.120 C 
ATOM      2  C   UNL     1      53.910 154.783  25.876  0.00  0.00    +0.035 C 
ATOM      3  C   UNL     1      53.531 153.459  25.181  0.00  0.00    +0.064 C 
ATOM      4  C   UNL     1      52.148 153.240  25.718  0.00  0.00    +0.235 C 
ATOM      5  O   UNL     1      51.761 154.408  26.401  0.00  0.00    -0.333 OA
ATOM      6  O   UNL     1      52.073 152.123  26.566  0.00  0.00    -0.330 OA
ATOM      7  C   UNL     1      52.107 152.649  27.864  0.00  0.00    +0.147 C 
ATOM      8  C   UNL     1      53.332 153.550  27.907  0.00  0.00    +0.062 C 
ENDROOT
TORSDOF 0
