REMARK  Name = =
REMARK  14 active torsions:
REMARK  status: ('A' for Active; 'I' for Inactive)
REMARK    1  A    between atoms: C_1  and  S_7
REMARK    2  A    between atoms: C_1  and  C_23
REMARK    3  A    between atoms: C_2  and  C_20
REMARK    4  A    between atoms: C_6  and  C_17
REMARK    5  A    between atoms: S_7  and  C_9
REMARK    6  A    between atoms: S_7  and  N_15
REMARK    7  A    between atoms: C_17  and  O_19
REMARK    8  A    between atoms: C_20  and  O_22
REMARK    9  A    between atoms: C_23  and  S_28
REMARK   10  A    between atoms: C_24  and  C_25
REMARK   11  A    between atoms: C_25  and  O_27
REMARK   12  A    between atoms: S_28  and  S_29
REMARK   13  A    between atoms: S_28  and  S_30
REMARK   14  A    between atoms: S_30  and  S_31
REMARK                            x       y       z     vdW  Elec       q    Type
REMARK                         _______ _______ _______ _____ _____    ______ ____
ROOT
ATOM      1  C   UNL     1      49.614 160.662  30.996  0.00  0.00    +0.129 C 
ATOM      2  C   UNL     1      48.963 161.320  29.863  0.00  0.00    +0.086 C 
ATOM      3  C   UNL     1      48.090 162.311  30.042  0.00  0.00    +0.065 C 
ATOM      4  N   UNL     1      47.657 162.842  31.271  0.00  0.00    -0.311 N 
ATOM      5  C   UNL     1      48.213 162.238  32.412  0.00  0.00    +0.065 C 
ATOM      6  C   UNL     1      49.054 161.290  32.296  0.00  0.00    +0.086 C 
ATOM      7  H   UNL     1      47.011 163.583  31.328  0.00  0.00    +0.152 HD
ENDROOT
BRANCH   6   8
ATOM      8  C   UNL     1      49.497 160.675  33.578  0.00  0.00    +0.337 C 
ATOM      9  O   UNL     1      50.393 159.838  33.667  0.00  0.00    -0.245 OA
BRANCH   8  10
ATOM     10  O   UNL     1      48.889 161.035  34.787  0.00  0.00    -0.477 OA
ATOM     11  H   UNL     1      48.198 161.668  34.794  0.00  0.00    +0.295 HD
ENDBRANCH   8  10
ENDBRANCH   6   8
BRANCH   2  12
ATOM     12  C   UNL     1      49.096 160.901  28.443  0.00  0.00    +0.337 C 
ATOM     13  O   UNL     1      48.444 161.581  27.554  0.00  0.00    -0.245 OA
BRANCH  12  14
ATOM     14  O   UNL     1      49.802 159.886  27.912  0.00  0.00    -0.477 OA
ATOM     15  H   UNL     1      50.311 159.329  28.467  0.00  0.00    +0.295 HD
ENDBRANCH  12  14
ENDBRANCH   2  12
BRANCH   1  16
ATOM     16  C   UNL     1      51.087 161.035  31.121  0.00  0.00    +0.025 C 
ATOM     17  C   UNL     1      51.366 162.259  31.590  0.00  0.00    +0.085 C 
BRANCH  17  18
ATOM     18  C   UNL     1      52.617 162.890  31.825  0.00  0.00    +0.338 C 
ATOM     19  O   UNL     1      52.681 164.212  31.737  0.00  0.00    -0.245 OA
BRANCH  18  20
ATOM     20  O   UNL     1      53.830 162.370  32.139  0.00  0.00    -0.477 OA
ATOM     21  H   UNL     1      53.932 161.443  32.234  0.00  0.00    +0.295 HD
ENDBRANCH  18  20
ENDBRANCH  17  18
BRANCH  16  22
ATOM     22  S   UNL     1      52.488 160.188  30.605  0.00  0.00    -0.122 S 
ATOM     23  H   UNL     1      53.317 159.400  31.341  0.00  0.00    +0.109 HD
BRANCH  22  24
ATOM     24  S   UNL     1      53.616 161.245  30.333  0.00  0.00    -0.118 S 
ATOM     25  H   UNL     1      53.117 162.255  29.571  0.00  0.00    +0.113 HD
ENDBRANCH  22  24
BRANCH  22  26
ATOM     26  S   UNL     1      51.673 159.041  29.499  0.00  0.00    -0.036 S 
BRANCH  26  27
ATOM     27  S   UNL     1      52.728 157.590  28.711  0.00  0.00    -0.100 S 
ATOM     28  H   UNL     1      51.932 156.835  27.907  0.00  0.00    +0.115 HD
ENDBRANCH  26  27
ENDBRANCH  22  26
ENDBRANCH  16  22
ENDBRANCH   1  16
BRANCH   1  29
ATOM     29  S   UNL     1      49.124 159.081  31.140  0.00  0.00    -0.023 S 
BRANCH  29  30
ATOM     30  C   UNL     1      49.644 157.821  30.312  0.00  0.00    +0.063 C 
ATOM     31  C   UNL     1      48.459 157.106  29.621  0.00  0.00    +0.012 C 
ATOM     32  C   UNL     1      49.072 156.079  28.697  0.00  0.00    +0.001 C 
ATOM     33  C   UNL     1      49.751 154.973  29.476  0.00  0.00    +0.000 C 
ATOM     34  C   UNL     1      50.686 155.547  30.508  0.00  0.00    +0.001 C 
ATOM     35  C   UNL     1      50.161 156.711  31.263  0.00  0.00    +0.012 C 
ENDBRANCH  29  30
BRANCH  29  36
ATOM     36  N   UNL     1      47.861 158.913  32.045  0.00  0.00    -0.004 NA
ATOM     37  O   UNL     1      46.776 159.334  31.883  0.00  0.00    -0.137 OA
ENDBRANCH  29  36
ENDBRANCH   1  29
TORSDOF 14
REMARK  Name = =
REMARK  14 active torsions:
REMARK  status: ('A' for Active; 'I' for Inactive)
REMARK    1  A    between atoms: C_1  and  S_7
REMARK    2  A    between atoms: C_1  and  C_23
REMARK    3  A    between atoms: C_2  and  C_20
REMARK    4  A    between atoms: C_6  and  C_17
REMARK    5  A    between atoms: S_7  and  C_9
REMARK    6  A    between atoms: S_7  and  N_15
REMARK    7  A    between atoms: C_17  and  O_19
REMARK    8  A    between atoms: C_20  and  O_22
REMARK    9  A    between atoms: C_23  and  S_28
REMARK   10  A    between atoms: C_24  and  C_25
REMARK   11  A    between atoms: C_25  and  O_27
REMARK   12  A    between atoms: S_28  and  S_29
REMARK   13  A    between atoms: S_28  and  S_30
REMARK   14  A    between atoms: S_30  and  S_31
REMARK                            x       y       z     vdW  Elec       q    Type
REMARK                         _______ _______ _______ _____ _____    ______ ____
ROOT
ATOM      1  H   UNK     1      50.335 158.754  32.525  0.00  0.00    +0.000 HD
ENDROOT
TORSDOF 0
