REMARK  Name = =
REMARK  0 active torsions:
REMARK  status: ('A' for Active; 'I' for Inactive)
REMARK                            x       y       z     vdW  Elec       q    Type
REMARK                         _______ _______ _______ _____ _____    ______ ____
ROOT
ATOM      1  N   UNL     1      -3.697  -3.696  31.260  0.00  0.00    -0.214 N 
ATOM      2  C   UNL     1      -4.825  -3.048  31.897  0.00  0.00    +0.112 C 
ATOM      3  C   UNL     1      -4.596  -4.059  33.025  0.00  0.00    +0.108 C 
ATOM      4  C   UNL     1      -4.083  -4.891  31.920  0.00  0.00    +0.234 C 
ATOM      5  O   UNL     1      -3.982  -6.096  31.607  0.00  0.00    -0.274 OA
ATOM      6  C   UNL     1      -2.660  -3.319  30.369  0.00  0.00    +0.307 C 
ATOM      7  O   UNL     1      -1.791  -4.140  29.979  0.00  0.00    -0.252 OA
ATOM      8  N   UNL     1      -2.600  -1.963  29.900  0.00  0.00    -0.313 N 
ATOM      9  H   UNL     1      -3.274  -1.309  30.197  0.00  0.00    +0.146 HD
ATOM     10  H   UNL     1      -1.885  -1.687  29.282  0.00  0.00    +0.146 HD
ENDROOT
TORSDOF 0
