REMARK  Name = =
REMARK  0 active torsions:
REMARK  status: ('A' for Active; 'I' for Inactive)
REMARK                            x       y       z     vdW  Elec       q    Type
REMARK                         _______ _______ _______ _____ _____    ______ ____
ROOT
ATOM      1  P   UNL     1      -3.986  -4.028  30.498  0.00  0.00    +0.195 P 
ATOM      2  O   UNL     1      -4.044  -5.471  31.043  0.00  0.00    -0.309 OA
ATOM      3  H   UNL     1      -3.894  -3.005  31.338  0.00  0.00    +0.113 HD
ENDROOT
TORSDOF 0
