REMARK  Name = =
REMARK  1 active torsions:
REMARK  status: ('A' for Active; 'I' for Inactive)
REMARK    1  A    between atoms: C_1  and  P_8
REMARK                            x       y       z     vdW  Elec       q    Type
REMARK                         _______ _______ _______ _____ _____    ______ ____
ROOT
ATOM      1  C   UNL     1      -8.897  -7.786  23.359  0.00  0.00    +0.198 C 
ATOM      2  S   UNL     1      -8.404  -6.051  23.048  0.00  0.00    -0.040 S 
ATOM      3  C   UNL     1      -6.702  -6.424  22.644  0.00  0.00    +0.280 C 
ATOM      4  O   UNL     1      -5.880  -5.541  22.300  0.00  0.00    -0.263 OA
ATOM      5  N   UNL     1      -6.551  -7.800  22.797  0.00  0.00    -0.246 N 
ATOM      6  C   UNL     1      -7.601  -8.459  23.435  0.00  0.00    +0.247 C 
ATOM      7  O   UNL     1      -7.480  -9.564  24.051  0.00  0.00    -0.273 OA
ATOM      8  H   UNL     1      -5.753  -8.278  22.475  0.00  0.00    +0.158 HD
ENDROOT
BRANCH   1   9
ATOM      9  P   UNL     1      -9.925  -8.442  21.952  0.00  0.00    +0.242 P 
ATOM     10  O   UNL     1      -9.590  -9.783  21.261  0.00  0.00    -0.303 OA
ENDBRANCH   1   9
TORSDOF 1
