REMARK  Name = =
REMARK  4 active torsions:
REMARK  status: ('A' for Active; 'I' for Inactive)
REMARK    1  A    between atoms: C_1  and  P_8
REMARK    2  A    between atoms: N_5  and  S_10
REMARK    3  A    between atoms: S_10  and  C_11
REMARK    4  A    between atoms: C_11  and  N_13
REMARK                            x       y       z     vdW  Elec       q    Type
REMARK                         _______ _______ _______ _____ _____    ______ ____
ROOT
ATOM      1  C   UNL     1      -8.970  -9.093  18.612  0.00  0.00    +0.199 C 
ATOM      2  S   UNL     1      -7.745  -7.714  18.677  0.00  0.00    -0.039 S 
ATOM      3  C   UNL     1      -7.731  -7.549  20.478  0.00  0.00    +0.292 C 
ATOM      4  O   UNL     1      -7.039  -6.706  21.132  0.00  0.00    -0.261 OA
ATOM      5  N   UNL     1      -8.634  -8.542  20.939  0.00  0.00    -0.166 N 
ATOM      6  C   UNL     1      -8.805  -9.595  19.999  0.00  0.00    +0.260 C 
ATOM      7  O   UNL     1      -8.820 -10.819  20.288  0.00  0.00    -0.272 OA
ENDROOT
BRANCH   1   8
ATOM      8  P   UNL     1      -8.480 -10.275  17.316  0.00  0.00    +0.242 P 
ATOM      9  O   UNL     1      -8.033  -9.752  15.937  0.00  0.00    -0.303 OA
ENDBRANCH   1   8
BRANCH   5  10
ATOM     10  S   UNL     1      -9.439  -8.442  22.540  0.00  0.00    +0.012 S 
BRANCH  10  11
ATOM     11  C   UNL     1     -10.225  -6.869  22.761  0.00  0.00    +0.123 C 
ATOM     12  S   UNL     1      -9.696  -5.901  23.957  0.00  0.00    -0.027 S 
BRANCH  11  13
ATOM     13  N   UNL     1     -11.283  -6.392  21.964  0.00  0.00    -0.346 N 
ATOM     14  H   UNL     1     -11.634  -6.945  21.229  0.00  0.00    +0.143 HD
ATOM     15  H   UNL     1     -11.672  -5.505  22.141  0.00  0.00    +0.143 HD
ENDBRANCH  11  13
ENDBRANCH  10  11
ENDBRANCH   5  10
TORSDOF 4
