REMARK  Name = =
REMARK  6 active torsions:
REMARK  status: ('A' for Active; 'I' for Inactive)
REMARK    1  A    between atoms: C_1  and  P_8
REMARK    2  A    between atoms: N_5  and  S_13
REMARK    3  A    between atoms: P_8  and  O_10
REMARK    4  A    between atoms: O_10  and  P_11
REMARK    5  A    between atoms: S_13  and  C_14
REMARK    6  A    between atoms: C_14  and  N_16
REMARK                            x       y       z     vdW  Elec       q    Type
REMARK                         _______ _______ _______ _____ _____    ______ ____
ROOT
ATOM      1  C   UNL     1      -9.197  -4.831  20.793  0.00  0.00    +0.207 C 
ATOM      2  S   UNL     1     -10.914  -4.386  20.347  0.00  0.00    -0.038 S 
ATOM      3  C   UNL     1     -11.669  -5.816  21.114  0.00  0.00    +0.292 C 
ATOM      4  O   UNL     1     -12.884  -5.949  21.472  0.00  0.00    -0.261 OA
ATOM      5  N   UNL     1     -10.614  -6.754  21.230  0.00  0.00    -0.166 N 
ATOM      6  C   UNL     1      -9.330  -6.224  21.211  0.00  0.00    +0.261 C 
ATOM      7  O   UNL     1      -8.300  -6.913  21.542  0.00  0.00    -0.272 OA
ENDROOT
BRANCH   1   8
ATOM      8  P   UNL     1      -8.758  -3.842  22.248  0.00  0.00    +0.225 P 
ATOM      9  O   UNL     1      -9.915  -2.992  22.708  0.00  0.00    -0.292 OA
ATOM     10  H   UNL     1      -8.522  -5.105  22.751  0.00  0.00    +0.130 HD
BRANCH   8  11
ATOM     11  O   UNL     1      -7.462  -2.831  21.865  0.00  0.00    -0.269 OA
BRANCH  11  12
ATOM     12  P   UNL     1      -6.026  -3.767  21.878  0.00  0.00    +0.300 P 
ATOM     13  O   UNL     1      -5.746  -4.788  20.712  0.00  0.00    -0.168 OA
ENDBRANCH  11  12
ENDBRANCH   8  11
ENDBRANCH   1   8
BRANCH   5  14
ATOM     14  S   UNL     1     -11.022  -8.498  21.391  0.00  0.00    +0.012 S 
BRANCH  14  15
ATOM     15  C   UNL     1      -9.486  -9.435  21.333  0.00  0.00    +0.123 C 
ATOM     16  S   UNL     1      -8.460  -9.290  20.054  0.00  0.00    -0.027 S 
BRANCH  15  17
ATOM     17  N   UNL     1      -9.223 -10.280  22.424  0.00  0.00    -0.346 N 
ATOM     18  H   UNL     1      -9.864 -10.337  23.169  0.00  0.00    +0.143 HD
ATOM     19  H   UNL     1      -8.397 -10.816  22.444  0.00  0.00    +0.143 HD
ENDBRANCH  15  17
ENDBRANCH  14  15
ENDBRANCH   5  14
TORSDOF 6
