REMARK  Name = =
REMARK  8 active torsions:
REMARK  status: ('A' for Active; 'I' for Inactive)
REMARK    1  A    between atoms: C_1  and  S_2
REMARK    2  A    between atoms: C_1  and  N_12
REMARK    3  A    between atoms: C_1  and  S_13
REMARK    4  A    between atoms: S_2  and  C_3
REMARK    5  A    between atoms: S_13  and  N_18
REMARK    6  A    between atoms: C_14  and  P_21
REMARK    7  A    between atoms: P_21  and  O_23
REMARK    8  A    between atoms: O_23  and  P_24
REMARK                            x       y       z     vdW  Elec       q    Type
REMARK                         _______ _______ _______ _____ _____    ______ ____
ROOT
ATOM      1  C   UNL     1      -5.719  -6.002  21.405  0.00  0.00    +0.159 C 
ENDROOT
BRANCH   1   2
ATOM      2  N   UNL     1      -5.798  -7.358  21.757  0.00  0.00    -0.305 NA
ATOM      3  H   UNL     1      -6.777  -7.639  21.810  0.00  0.00    +0.120 HD
ATOM      4  H   UNL     1      -5.353  -7.500  22.664  0.00  0.00    +0.120 HD
ENDBRANCH   1   2
BRANCH   1   5
ATOM      5  S   UNL     1      -4.259  -5.298  21.251  0.00  0.00    -0.157 S 
ATOM      6  H   UNL     1      -3.582  -5.998  20.301  0.00  0.00    +0.099 HD
BRANCH   5   7
ATOM      7  C   UNL     1      -4.146  -3.527  20.787  0.00  0.00    +0.016 C 
ATOM      8  C   UNL     1      -2.810  -3.283  20.230  0.00  0.00    +0.022 C 
ATOM      9  C   UNL     1      -2.015  -2.383  20.738  0.00  0.00    +0.090 C 
ATOM     10  C   UNL     1      -2.391  -1.572  21.877  0.00  0.00    +0.107 C 
ATOM     11  C   UNL     1      -1.376  -0.767  22.143  0.00  0.00    +0.106 C 
ATOM     12  N   UNL     1      -0.338  -1.025  21.208  0.00  0.00    -0.151 NA
ATOM     13  N   UNL     1      -0.683  -1.936  20.404  0.00  0.00    -0.152 NA
ATOM     14  C   UNL     1      -3.699  -1.765  22.479  0.00  0.00    -0.014 C 
ATOM     15  C   UNL     1      -4.476  -2.684  21.937  0.00  0.00    +0.001 C 
ENDBRANCH   5   7
ENDBRANCH   1   5
BRANCH   1  16
ATOM     16  S   UNL     1      -7.171  -5.016  21.109  0.00  0.00    -0.012 S 
BRANCH  16  21
ATOM     17  C   UNL     1     -10.572  -7.144  20.721  0.00  0.00    +0.207 C 
ATOM     18  S   UNL     1     -11.151  -6.047  22.044  0.00  0.00    -0.038 S 
ATOM     19  C   UNL     1      -9.520  -5.438  22.558  0.00  0.00    +0.292 C 
ATOM     20  O   UNL     1      -9.272  -4.784  23.603  0.00  0.00    -0.261 OA
ATOM     21  N   UNL     1      -8.662  -5.881  21.513  0.00  0.00    -0.169 N 
ATOM     22  C   UNL     1      -9.101  -7.034  20.862  0.00  0.00    +0.261 C 
ATOM     23  O   UNL     1      -8.348  -7.959  20.399  0.00  0.00    -0.272 OA
BRANCH  17  24
ATOM     24  P   UNL     1     -11.003  -8.849  21.160  0.00  0.00    +0.226 P 
ATOM     25  O   UNL     1     -10.203  -9.850  20.358  0.00  0.00    -0.292 OA
ATOM     26  H   UNL     1     -10.440  -8.409  22.341  0.00  0.00    +0.130 HD
BRANCH  24  27
ATOM     27  O   UNL     1     -12.649  -9.130  21.072  0.00  0.00    -0.258 OA
BRANCH  27  28
ATOM     28  P   UNL     1     -13.197  -9.445  19.475  0.00  0.00    +0.390 P 
ATOM     29  O   UNL     1     -13.324  -8.245  18.496  0.00  0.00    -0.269 OA
ENDBRANCH  27  28
ENDBRANCH  24  27
ENDBRANCH  17  24
ENDBRANCH  16  21
ENDBRANCH   1  16
TORSDOF 8
