REMARK  Name = =
REMARK  9 active torsions:
REMARK  status: ('A' for Active; 'I' for Inactive)
REMARK    1  A    between atoms: P_1  and  C_3
REMARK    2  A    between atoms: P_1  and  O_23
REMARK    3  A    between atoms: N_7  and  S_10
REMARK    4  A    between atoms: S_10  and  C_11
REMARK    5  A    between atoms: C_11  and  S_12
REMARK    6  A    between atoms: C_11  and  N_22
REMARK    7  A    between atoms: S_12  and  C_13
REMARK    8  A    between atoms: O_23  and  P_24
REMARK    9  A    between atoms: P_24  and  C_38
REMARK                            x       y       z     vdW  Elec       q    Type
REMARK                         _______ _______ _______ _____ _____    ______ ____
ROOT
ATOM      1  P   UNL     1      -8.287  -6.469  22.341  0.00  0.00    +0.226 P 
ATOM      2  O   UNL     1      -7.462  -6.193  23.598  0.00  0.00    -0.292 OA
ATOM      3  H   UNL     1      -8.654  -7.719  21.885  0.00  0.00    +0.130 HD
ENDROOT
BRANCH   1   4
ATOM      4  C   UNL     1      -7.917  -5.160  21.171  0.00  0.00    +0.207 C 
ATOM      5  S   UNL     1      -6.106  -5.048  20.836  0.00  0.00    -0.038 S 
ATOM      6  C   UNL     1      -6.012  -3.263  20.827  0.00  0.00    +0.292 C 
ATOM      7  O   UNL     1      -4.993  -2.601  20.536  0.00  0.00    -0.261 OA
ATOM      8  N   UNL     1      -7.299  -2.822  21.209  0.00  0.00    -0.169 N 
ATOM      9  C   UNL     1      -8.100  -3.819  21.786  0.00  0.00    +0.261 C 
ATOM     10  O   UNL     1      -8.934  -3.670  22.750  0.00  0.00    -0.272 OA
BRANCH   8  11
ATOM     11  S   UNL     1      -7.858  -1.164  20.996  0.00  0.00    -0.012 S 
BRANCH  11  12
ATOM     12  C   UNL     1      -9.456  -1.189  20.228  0.00  0.00    +0.159 C 
BRANCH  12  13
ATOM     13  N   UNL     1      -9.616  -1.808  18.964  0.00  0.00    -0.305 NA
ATOM     14  H   UNL     1     -10.590  -1.733  18.670  0.00  0.00    +0.120 HD
ATOM     15  H   UNL     1      -9.356  -2.792  19.032  0.00  0.00    +0.120 HD
ENDBRANCH  12  13
BRANCH  12  16
ATOM     16  S   UNL     1     -10.782  -0.515  20.928  0.00  0.00    -0.157 S 
ATOM     17  H   UNL     1     -11.712  -1.496  21.081  0.00  0.00    +0.099 HD
BRANCH  16  18
ATOM     18  C   UNL     1     -10.532   0.277  22.567  0.00  0.00    +0.016 C 
ATOM     19  C   UNL     1     -10.745   1.721  22.450  0.00  0.00    +0.022 C 
ATOM     20  C   UNL     1     -11.660   2.381  23.115  0.00  0.00    +0.090 C 
ATOM     21  C   UNL     1     -12.532   1.677  24.030  0.00  0.00    +0.107 C 
ATOM     22  C   UNL     1     -13.350   2.585  24.558  0.00  0.00    +0.106 C 
ATOM     23  N   UNL     1     -13.007   3.841  23.994  0.00  0.00    -0.151 NA
ATOM     24  N   UNL     1     -12.060   3.755  23.180  0.00  0.00    -0.152 NA
ATOM     25  C   UNL     1     -12.381   0.244  24.197  0.00  0.00    -0.014 C 
ATOM     26  C   UNL     1     -11.454  -0.374  23.512  0.00  0.00    +0.001 C 
ENDBRANCH  16  18
ENDBRANCH  12  16
ENDBRANCH  11  12
ENDBRANCH   8  11
ENDBRANCH   1   4
BRANCH   1  27
ATOM     27  O   UNL     1      -9.888  -6.548  22.804  0.00  0.00    -0.270 OA
BRANCH  27  28
ATOM     28  P   UNL     1      -9.971  -6.351  24.475  0.00  0.00    +0.228 P 
ATOM     29  O   UNL     1     -10.259  -7.749  25.040  0.00  0.00    -0.289 OA
ATOM     30  H   UNL     1     -11.015  -5.514  24.138  0.00  0.00    +0.133 HD
BRANCH  28  43
ATOM     31  N   UNL     1     -16.266  -5.103  24.464  0.00  0.00    -0.244 NA
ATOM     32  C   UNL     1     -14.960  -5.396  24.442  0.00  0.00    +0.081 C 
ATOM     33  C   UNL     1     -13.728  -4.826  25.004  0.00  0.00    +0.018 C 
ATOM     34  C   UNL     1     -12.644  -5.618  24.609  0.00  0.00    +0.006 C 
ATOM     35  C   UNL     1     -13.230  -6.685  23.794  0.00  0.00    +0.002 C 
ATOM     36  C   UNL     1     -14.596  -6.499  23.733  0.00  0.00    +0.018 C 
ATOM     37  C   UNL     1     -15.460  -7.317  23.051  0.00  0.00    +0.003 C 
ATOM     38  C   UNL     1     -14.926  -8.399  22.381  0.00  0.00    +0.000 C 
ATOM     39  C   UNL     1     -13.563  -8.604  22.428  0.00  0.00    +0.000 C 
ATOM     40  C   UNL     1     -12.688  -7.763  23.127  0.00  0.00    +0.000 C 
ATOM     41  C   UNL     1     -16.816  -7.008  23.078  0.00  0.00    +0.021 C 
ATOM     42  C   UNL     1     -17.170  -5.886  23.802  0.00  0.00    +0.099 C 
ATOM     43  C   UNL     1     -11.350  -5.336  24.982  0.00  0.00    +0.051 C 
ATOM     44  C   UNL     1     -11.172  -4.206  25.787  0.00  0.00    +0.005 C 
ATOM     45  C   UNL     1     -12.240  -3.422  26.179  0.00  0.00    +0.000 C 
ATOM     46  C   UNL     1     -13.528  -3.730  25.788  0.00  0.00    +0.002 C 
ENDBRANCH  28  43
ENDBRANCH  27  28
ENDBRANCH   1  27
TORSDOF 9
