REMARK  Name = =
REMARK  12 active torsions:
REMARK  status: ('A' for Active; 'I' for Inactive)
REMARK    1  A    between atoms: N_1  and  C_8
REMARK    2  A    between atoms: C_3  and  C_32
REMARK    3  A    between atoms: C_5  and  C_24
REMARK    4  A    between atoms: N_7  and  C_13
REMARK    5  A    between atoms: C_13  and  C_14
REMARK    6  A    between atoms: C_14  and  N_22
REMARK    7  A    between atoms: C_14  and  O_23
REMARK    8  A    between atoms: C_24  and  O_26
REMARK    9  A    between atoms: O_26  and  C_27
REMARK   10  A    between atoms: C_32  and  O_34
REMARK   11  A    between atoms: O_34  and  N_35
REMARK   12  A    between atoms: C_40  and  O_44
REMARK                            x       y       z     vdW  Elec       q    Type
REMARK                         _______ _______ _______ _____ _____    ______ ____
ROOT
ATOM      1  N   UNL     1      -2.369  -2.092  29.414  0.00  0.00    -0.291 N 
ATOM      2  C   UNL     1      -1.911  -2.228  28.076  0.00  0.00    +0.125 C 
ATOM      3  C   UNL     1      -2.150  -1.261  27.228  0.00  0.00    +0.076 C 
ATOM      4  C   UNL     1      -2.865  -0.019  27.540  0.00  0.00    +0.012 C 
ATOM      5  C   UNL     1      -3.316   0.065  28.945  0.00  0.00    +0.090 C 
ATOM      6  C   UNL     1      -3.071  -0.919  29.798  0.00  0.00    +0.069 C 
ENDROOT
BRANCH   1   8
ATOM      7  N   UNL     1      -3.239  -3.997  30.549  0.00  0.00    -0.255 NA
ATOM      8  C   UNL     1      -2.138  -3.149  30.408  0.00  0.00    +0.135 C 
ATOM      9  C   UNL     1      -0.834  -3.802  30.008  0.00  0.00    +0.037 C 
ATOM     10  C   UNL     1      -0.880  -5.299  30.115  0.00  0.00    +0.005 C 
ATOM     11  C   UNL     1      -2.088  -5.869  29.407  0.00  0.00    +0.017 C 
ATOM     12  C   UNL     1      -3.350  -5.148  29.738  0.00  0.00    +0.074 C 
BRANCH   7  13
ATOM     13  C   UNL     1      -4.221  -3.761  31.508  0.00  0.00    +0.124 C 
BRANCH  13  14
ATOM     14  C   UNL     1      -3.998  -4.288  32.894  0.00  0.00    +0.205 C 
BRANCH  14  22
ATOM     15  N   UNL     1      -2.417  -7.700  32.975  0.00  0.00    -0.214 N 
ATOM     16  C   UNL     1      -2.430  -9.140  32.970  0.00  0.00    +0.112 C 
ATOM     17  C   UNL     1      -1.050  -9.050  32.345  0.00  0.00    +0.108 C 
ATOM     18  C   UNL     1      -1.007  -7.737  33.051  0.00  0.00    +0.234 C 
ATOM     19  O   UNL     1      -0.060  -7.036  33.490  0.00  0.00    -0.274 OA
ATOM     20  C   UNL     1      -3.376  -6.670  32.924  0.00  0.00    +0.311 C 
ATOM     21  O   UNL     1      -4.611  -6.986  32.857  0.00  0.00    -0.252 OA
ATOM     22  N   UNL     1      -2.986  -5.305  32.948  0.00  0.00    -0.266 N 
ATOM     23  H   UNL     1      -2.034  -5.059  33.001  0.00  0.00    +0.153 HD
ENDBRANCH  14  22
BRANCH  14  24
ATOM     24  O   UNL     1      -3.718  -3.353  33.853  0.00  0.00    -0.366 OA
ATOM     25  H   UNL     1      -4.392  -2.656  33.832  0.00  0.00    +0.212 HD
ENDBRANCH  14  24
ENDBRANCH  13  14
ENDBRANCH   7  13
ENDBRANCH   1   8
BRANCH   5  26
ATOM     26  C   UNL     1      -4.037   1.254  29.360  0.00  0.00    +0.342 C 
ATOM     27  O   UNL     1      -3.822   2.379  28.864  0.00  0.00    -0.245 OA
BRANCH  26  28
ATOM     28  O   UNL     1      -5.001   1.140  30.343  0.00  0.00    -0.449 OA
BRANCH  28  29
ATOM     29  C   UNL     1      -6.265   1.731  30.248  0.00  0.00    +0.169 C 
ATOM     30  C   UNL     1      -7.418   0.797  30.373  0.00  0.00    +0.044 C 
ATOM     31  C   UNL     1      -8.589   1.705  30.657  0.00  0.00    +0.004 C 
ATOM     32  C   UNL     1      -8.034   2.971  31.215  0.00  0.00    +0.004 C 
ATOM     33  C   UNL     1      -6.526   2.773  31.318  0.00  0.00    +0.044 C 
ENDBRANCH  28  29
ENDBRANCH  26  28
ENDBRANCH   5  26
BRANCH   3  34
ATOM     34  C   UNL     1      -1.665  -1.439  25.856  0.00  0.00    +0.363 C 
ATOM     35  O   UNL     1      -0.532  -1.950  25.598  0.00  0.00    -0.243 OA
BRANCH  34  36
ATOM     36  O   UNL     1      -2.421  -1.058  24.746  0.00  0.00    -0.327 OA
BRANCH  36  37
ATOM     37  N   UNL     1      -2.015  -1.396  23.474  0.00  0.00    -0.130 N 
ATOM     38  C   UNL     1      -2.655  -2.176  22.566  0.00  0.00    +0.205 C 
ATOM     39  N   UNL     1      -3.829  -2.831  22.618  0.00  0.00    -0.202 NA
ATOM     40  C   UNL     1      -4.227  -3.547  21.542  0.00  0.00    +0.203 C 
ATOM     41  N   UNL     1      -3.469  -3.616  20.420  0.00  0.00    -0.188 NA
ATOM     42  C   UNL     1      -2.295  -2.981  20.323  0.00  0.00    +0.244 C 
ATOM     43  C   UNL     1      -1.874  -2.242  21.421  0.00  0.00    +0.173 C 
ATOM     44  N   UNL     1      -0.775  -1.509  21.642  0.00  0.00    -0.215 NA
ATOM     45  C   UNL     1      -0.868  -1.006  22.871  0.00  0.00    +0.218 C 
BRANCH  42  46
ATOM     46  O   UNL     1      -1.496  -3.033  19.189  0.00  0.00    -0.491 OA
ATOM     47  H   UNL     1      -1.772  -3.529  18.444  0.00  0.00    +0.294 HD
ENDBRANCH  42  46
ENDBRANCH  36  37
ENDBRANCH  34  36
ENDBRANCH   3  34
TORSDOF 12
