MODEL 1
REMARK VINA RESULT:    -9.251      0.000      0.000
REMARK INTER + INTRA:         -13.010
REMARK INTER:                 -11.685
REMARK INTRA:                  -1.326
REMARK UNBOUND:                -1.326
REMARK  Name = =
REMARK  6 active torsions:
REMARK  status: ('A' for Active; 'I' for Inactive)
REMARK    1  A    between atoms: S_1  and  C_6
REMARK    2  A    between atoms: S_1  and  C_24
REMARK    3  A    between atoms: S_1  and  N_31
REMARK    4  A    between atoms: C_5  and  N_16
REMARK    5  A    between atoms: C_30  and  N_31
REMARK    6  A    between atoms: C_30  and  C_33
REMARK                            x       y       z     vdW  Elec       q    Type
REMARK                         _______ _______ _______ _____ _____    ______ ____
ROOT
ATOM      1  S   UNL     1       1.645  -3.817  28.620  0.00  0.00    -0.117 S 
ATOM      2  C   UNL     1       1.963  -2.126  28.865  0.00  0.00    +0.120 C 
ATOM      3  N   UNL     1       2.690  -1.354  28.392  0.00  0.00    -0.235 NA
ATOM      4  C   UNL     1       3.396  -1.970  27.467  0.00  0.00    +0.120 C 
ATOM      5  C   UNL     1       3.009  -3.138  27.455  0.00  0.00    +0.097 C 
ATOM      6  H   UNL     1       2.162  -2.625  29.019  0.00  0.00    +0.101 HD
ENDROOT
BRANCH   1   7
ATOM      7  C   UNL     1       1.450  -5.609  28.008  0.00  0.00    +0.019 C 
ATOM      8  C   UNL     1       0.371  -6.099  27.356  0.00  0.00    +0.102 C 
ATOM      9  N   UNL     1       0.271  -7.371  26.840  0.00  0.00    -0.225 NA
ATOM     10  C   UNL     1       1.326  -8.132  27.015  0.00  0.00    +0.161 C 
ATOM     11  N   UNL     1       1.266  -9.383  26.523  0.00  0.00    -0.207 NA
ATOM     12  C   UNL     1       2.318 -10.247  26.658  0.00  0.00    +0.187 C 
ATOM     13  N   UNL     1       3.456  -9.866  27.295  0.00  0.00    -0.191 NA
ATOM     14  C   UNL     1       3.563  -8.605  27.810  0.00  0.00    +0.087 C 
ATOM     15  C   UNL     1       2.476  -7.826  27.629  0.00  0.00    +0.035 C 
ATOM     16  C   UNL     1       2.471  -6.511  28.115  0.00  0.00    +0.064 C 
ENDBRANCH   1   7
BRANCH   5  17
ATOM     17  N   UNL     1       3.797  -3.853  26.443  0.00  0.00    -0.200 N 
ATOM     18  C   UNL     1       3.166  -4.056  25.189  0.00  0.00    +0.253 C 
ATOM     19  O   UNL     1       1.935  -3.905  25.015  0.00  0.00    -0.273 OA
ATOM     20  C   UNL     1       3.970  -4.471  23.980  0.00  0.00    +0.175 C 
ATOM     21  N   UNL     1       5.115  -5.245  24.333  0.00  0.00    -0.199 NA
ATOM     22  C   UNL     1       5.893  -4.694  25.441  0.00  0.00    +0.175 C 
ATOM     23  C   UNL     1       5.034  -4.457  26.620  0.00  0.00    +0.253 C 
ATOM     24  O   UNL     1       5.387  -4.783  27.767  0.00  0.00    -0.273 OA
ENDBRANCH   5  17
BRANCH   1  25
ATOM     25  C   UNL     1      -0.174  -3.498  28.538  0.00  0.00    +0.015 C 
ATOM     26  C   UNL     1      -0.891  -3.049  27.633  0.00  0.00    +0.120 C 
ATOM     27  N   UNL     1      -2.331  -2.827  27.647  0.00  0.00    -0.328 N 
ATOM     28  C   UNL     1      -3.011  -3.167  28.828  0.00  0.00    +0.058 C 
ATOM     29  C   UNL     1      -2.318  -3.650  29.815  0.00  0.00    +0.016 C 
ATOM     30  C   UNL     1      -0.919  -3.865  29.811  0.00  0.00    +0.004 C 
ATOM     31  H   UNL     1      -2.804  -2.456  26.866  0.00  0.00    +0.147 HD
ENDBRANCH   1  25
BRANCH   1  32
ATOM     32  N   UNL     1       2.024  -4.007  30.701  0.00  0.00    -0.178 NA
BRANCH  32  33
ATOM     33  C   UNL     1       2.575  -5.097  30.925  0.00  0.00    +0.129 C 
BRANCH  33  35
ATOM     34  C   UNL     1       0.762  -6.581  31.295  0.00  0.00    +0.042 C 
ATOM     35  C   UNL     1       1.787  -5.942  31.801  0.00  0.00    +0.038 C 
ATOM     36  C   UNL     1       2.074  -6.120  33.219  0.00  0.00    +0.193 C 
ATOM     37  O   UNL     1       3.050  -5.518  33.719  0.00  0.00    -0.287 OA
ATOM     38  C   UNL     1       1.261  -6.976  34.059  0.00  0.00    +0.045 C 
ATOM     39  C   UNL     1       0.218  -7.612  33.496  0.00  0.00    +0.045 C 
ATOM     40  C   UNL     1      -0.092  -7.452  32.083  0.00  0.00    +0.196 C 
ATOM     41  O   UNL     1      -1.061  -8.038  31.533  0.00  0.00    -0.287 OA
ENDBRANCH  33  35
ENDBRANCH  32  33
ENDBRANCH   1  32
TORSDOF 6
ENDMDL
