REMARK  Name = =
REMARK  0 active torsions:
REMARK  status: ('A' for Active; 'I' for Inactive)
REMARK                            x       y       z     vdW  Elec       q    Type
REMARK                         _______ _______ _______ _____ _____    ______ ____
ROOT
ATOM      1  N   UNL     1      -4.316  -4.488  30.387  0.00  0.00    -0.270 NA
ATOM      2  C   UNL     1      -5.031  -3.791  31.447  0.00  0.00    +0.103 C 
ATOM      3  C   UNL     1      -3.959  -2.838  31.939  0.00  0.00    +0.161 C 
ATOM      4  O   UNL     1      -3.002  -2.809  30.947  0.00  0.00    -0.336 OA
ATOM      5  C   UNL     1      -3.555  -3.405  29.813  0.00  0.00    +0.216 C 
ATOM      6  H   UNL     1      -4.958  -4.897  29.708  0.00  0.00    +0.126 HD
ENDROOT
TORSDOF 0
