REMARK  Name = =
REMARK  5 active torsions:
REMARK  status: ('A' for Active; 'I' for Inactive)
REMARK    1  A    between atoms: C_1  and  C_31
REMARK    2  A    between atoms: N_14  and  C_15
REMARK    3  A    between atoms: C_20  and  C_21
REMARK    4  A    between atoms: N_23  and  C_24
REMARK    5  A    between atoms: N_30  and  N_35
REMARK                            x       y       z     vdW  Elec       q    Type
REMARK                         _______ _______ _______ _____ _____    ______ ____
ROOT
ATOM      1  C   UNL     1       1.715  -0.621  21.209  0.00  0.00    -0.003 C 
ATOM      2  C   UNL     1       0.355  -0.781  21.013  0.00  0.00    +0.012 C 
ATOM      3  C   UNL     1      -0.526   0.288  20.791  0.00  0.00    +0.057 C 
ATOM      4  C   UNL     1       0.050   1.517  20.781  0.00  0.00    +0.043 C 
ATOM      5  C   UNL     1       1.405   1.729  20.974  0.00  0.00    +0.007 C 
ATOM      6  C   UNL     1       2.230   0.649  21.187  0.00  0.00    -0.002 C 
ATOM      7  S   UNL     1      -0.948   2.952  20.496  0.00  0.00    -0.084 S 
ATOM      8  C   UNL     1      -2.619   2.392  20.457  0.00  0.00    +0.043 C 
ATOM      9  C   UNL     1      -2.908   1.051  20.503  0.00  0.00    +0.058 C 
ATOM     10  C   UNL     1      -4.261   0.716  20.454  0.00  0.00    +0.015 C 
ATOM     11  C   UNL     1      -5.228   1.700  20.364  0.00  0.00    +0.001 C 
ATOM     12  C   UNL     1      -4.922   3.011  20.321  0.00  0.00    +0.001 C 
ATOM     13  C   UNL     1      -3.588   3.345  20.370  0.00  0.00    +0.008 C 
ATOM     14  N   UNL     1      -1.945  -0.009  20.656  0.00  0.00    -0.287 N 
ENDROOT
BRANCH  14  15
ATOM     15  C   UNL     1      -2.432  -1.358  20.595  0.00  0.00    +0.093 C 
ATOM     16  C   UNL     1      -3.737  -1.658  19.927  0.00  0.00    +0.029 C 
ATOM     17  C   UNL     1      -4.224  -2.898  20.634  0.00  0.00    +0.067 C 
ATOM     18  C   UNL     1      -3.001  -3.465  21.242  0.00  0.00    +0.161 C 
ATOM     19  O   UNL     1      -2.832  -4.667  21.367  0.00  0.00    -0.296 OA
ATOM     20  C   UNL     1      -2.117  -2.338  21.625  0.00  0.00    +0.152 C 
BRANCH  20  21
ATOM     21  C   UNL     1      -2.200  -2.027  23.055  0.00  0.00    +0.234 C 
ATOM     22  O   UNL     1      -3.321  -1.718  23.503  0.00  0.00    -0.274 OA
ATOM     23  N   UNL     1      -1.101  -2.056  23.932  0.00  0.00    -0.284 N 
ATOM     24  H   UNL     1      -0.228  -2.302  23.550  0.00  0.00    +0.155 HD
BRANCH  23  25
ATOM     25  C   UNL     1      -1.141  -1.766  25.296  0.00  0.00    +0.050 C 
ATOM     26  C   UNL     1      -2.226  -1.791  26.132  0.00  0.00    +0.015 C 
ATOM     27  C   UNL     1      -2.145  -1.475  27.492  0.00  0.00    +0.001 C 
ATOM     28  C   UNL     1      -0.946  -1.115  28.066  0.00  0.00    +0.000 C 
ATOM     29  C   UNL     1       0.152  -1.086  27.242  0.00  0.00    +0.001 C 
ATOM     30  C   UNL     1       0.067  -1.397  25.908  0.00  0.00    +0.015 C 
ENDBRANCH  23  25
ENDBRANCH  20  21
ENDBRANCH  14  15
BRANCH   1  32
ATOM     31  N   UNL     1       3.956  -1.471  21.684  0.00  0.00    -0.185 NA
ATOM     32  C   UNL     1       2.589  -1.804  21.434  0.00  0.00    +0.127 C 
ATOM     33  C   UNL     1       2.655  -2.635  20.175  0.00  0.00    +0.166 C 
ATOM     34  O   UNL     1       3.764  -2.144  19.493  0.00  0.00    -0.335 OA
ATOM     35  C   UNL     1       4.644  -1.707  20.454  0.00  0.00    +0.235 C 
BRANCH  31  36
ATOM     36  N   UNL     1       4.438  -2.215  22.717  0.00  0.00    -0.216 NA
ATOM     37  C   UNL     1       5.430  -3.182  22.471  0.00  0.00    +0.089 C 
ATOM     38  C   UNL     1       5.369  -4.238  23.584  0.00  0.00    +0.019 C 
ATOM     39  C   UNL     1       5.661  -3.474  24.884  0.00  0.00    +0.003 C 
ATOM     40  C   UNL     1       4.521  -2.514  25.149  0.00  0.00    +0.019 C 
ATOM     41  C   UNL     1       3.687  -2.286  23.907  0.00  0.00    +0.089 C 
ENDBRANCH  31  36
ENDBRANCH   1  32
TORSDOF 5
