REMARK  Name = =
REMARK  2 active torsions:
REMARK  status: ('A' for Active; 'I' for Inactive)
REMARK    1  A    between atoms: C_2  and  O_8
REMARK    2  A    between atoms: C_5  and  O_7
REMARK                            x       y       z     vdW  Elec       q    Type
REMARK                         _______ _______ _______ _____ _____    ______ ____
ROOT
ATOM      1  C   UNL     1      52.818 156.578  27.789  0.00  0.00    +0.040 C 
ATOM      2  C   UNL     1      52.573 155.232  27.965  0.00  0.00    +0.134 C 
ATOM      3  C   UNL     1      51.664 154.875  28.939  0.00  0.00    +0.040 C 
ATOM      4  C   UNL     1      51.019 155.845  29.713  0.00  0.00    +0.040 C 
ATOM      5  C   UNL     1      51.274 157.189  29.527  0.00  0.00    +0.134 C 
ATOM      6  C   UNL     1      52.179 157.549  28.557  0.00  0.00    +0.040 C 
ENDROOT
BRANCH   5   7
ATOM      7  O   UNL     1      50.650 158.175  30.279  0.00  0.00    -0.506 OA
ATOM      8  H   UNL     1      50.032 157.938  30.942  0.00  0.00    +0.292 HD
ENDBRANCH   5   7
BRANCH   2   9
ATOM      9  O   UNL     1      53.196 154.243  27.212  0.00  0.00    -0.506 OA
ATOM     10  H   UNL     1      53.814 154.479  26.549  0.00  0.00    +0.292 HD
ENDBRANCH   2   9
TORSDOF 2
