REMARK  Name = =
REMARK  4 active torsions:
REMARK  status: ('A' for Active; 'I' for Inactive)
REMARK    1  A    between atoms: O_1  and  C_3
REMARK    2  A    between atoms: O_1  and  N_9
REMARK    3  A    between atoms: C_6  and  O_8
REMARK    4  A    between atoms: N_9  and  C_10
REMARK                            x       y       z     vdW  Elec       q    Type
REMARK                         _______ _______ _______ _____ _____    ______ ____
ROOT
ATOM      1  O   UNL     1      53.189 154.713  28.208  0.00  0.00    -0.379 OA
ENDROOT
BRANCH   1   3
ATOM      2  C   UNL     1      52.775 157.024  28.629  0.00  0.00    +0.043 C 
ATOM      3  C   UNL     1      52.354 155.699  28.684  0.00  0.00    +0.173 C 
ATOM      4  C   UNL     1      51.123 155.421  29.210  0.00  0.00    +0.043 C 
ATOM      5  C   UNL     1      50.319 156.440  29.675  0.00  0.00    +0.040 C 
ATOM      6  C   UNL     1      50.731 157.760  29.623  0.00  0.00    +0.134 C 
ATOM      7  C   UNL     1      51.969 158.027  29.092  0.00  0.00    +0.040 C 
BRANCH   6   8
ATOM      8  O   UNL     1      49.939 158.807  30.085  0.00  0.00    -0.506 OA
ATOM      9  H   UNL     1      49.094 158.630  30.448  0.00  0.00    +0.292 HD
ENDBRANCH   6   8
ENDBRANCH   1   3
BRANCH   1  10
ATOM     10  N   UNL     1      52.816 153.833  27.224  0.00  0.00    -0.220 N 
ATOM     11  H   UNL     1      52.066 153.215  27.380  0.00  0.00    +0.207 HD
BRANCH  10  12
ATOM     12  C   UNL     1      53.506 153.806  25.978  0.00  0.00    +0.092 C 
ATOM     13  C   UNL     1      53.812 152.628  25.340  0.00  0.00    +0.041 C 
ATOM     14  C   UNL     1      54.480 152.580  24.131  0.00  0.00    +0.100 C 
ATOM     15  N   UNL     1      54.819 153.777  23.609  0.00  0.00    -0.242 NA
ATOM     16  C   UNL     1      54.546 154.943  24.187  0.00  0.00    +0.100 C 
ATOM     17  C   UNL     1      53.881 154.991  25.390  0.00  0.00    +0.041 C 
ENDBRANCH  10  12
ENDBRANCH   1  10
TORSDOF 4
