REMARK  Name = =
REMARK  6 active torsions:
REMARK  status: ('A' for Active; 'I' for Inactive)
REMARK    1  A    between atoms: C_2  and  O_11
REMARK    2  A    between atoms: C_5  and  O_7
REMARK    3  A    between atoms: O_7  and  N_8
REMARK    4  A    between atoms: N_8  and  N_9
REMARK    5  A    between atoms: O_11  and  N_12
REMARK    6  A    between atoms: N_12  and  C_13
REMARK                            x       y       z     vdW  Elec       q    Type
REMARK                         _______ _______ _______ _____ _____    ______ ____
ROOT
ATOM      1  C   UNL     1      51.042 155.300  29.657  0.00  0.00    +0.043 C 
ATOM      2  C   UNL     1      52.104 155.121  28.797  0.00  0.00    +0.173 C 
ATOM      3  C   UNL     1      52.606 156.250  28.184  0.00  0.00    +0.043 C 
ATOM      4  C   UNL     1      52.062 157.511  28.425  0.00  0.00    +0.043 C 
ATOM      5  C   UNL     1      51.002 157.680  29.287  0.00  0.00    +0.175 C 
ATOM      6  C   UNL     1      50.496 156.554  29.900  0.00  0.00    +0.043 C 
ENDROOT
BRANCH   5   7
ATOM      7  O   UNL     1      50.440 158.940  29.544  0.00  0.00    -0.362 OA
BRANCH   7   8
ATOM      8  N   UNL     1      50.625 159.410  30.829  0.00  0.00    -0.137 N 
ATOM      9  H   UNL     1      50.537 158.816  31.609  0.00  0.00    +0.231 HD
BRANCH   8  10
ATOM     10  N   UNL     1      50.941 160.760  30.977  0.00  0.00    -0.139 NA
ATOM     11  C   UNL     1      52.171 161.108  30.822  0.00  0.00    +0.145 C 
ENDBRANCH   8  10
ENDBRANCH   7   8
ENDBRANCH   5   7
BRANCH   2  12
ATOM     12  O   UNL     1      52.638 153.862  28.565  0.00  0.00    -0.379 OA
BRANCH  12  13
ATOM     13  N   UNL     1      52.250 153.083  27.516  0.00  0.00    -0.220 N 
ATOM     14  H   UNL     1      51.460 152.500  27.591  0.00  0.00    +0.207 HD
BRANCH  13  15
ATOM     15  C   UNL     1      53.001 153.127  26.319  0.00  0.00    +0.092 C 
ATOM     16  C   UNL     1      52.925 154.214  25.475  0.00  0.00    +0.041 C 
ATOM     17  C   UNL     1      53.679 154.219  24.319  0.00  0.00    +0.100 C 
ATOM     18  N   UNL     1      54.492 153.200  23.981  0.00  0.00    -0.242 NA
ATOM     19  C   UNL     1      54.568 152.138  24.805  0.00  0.00    +0.100 C 
ATOM     20  C   UNL     1      53.840 152.075  25.970  0.00  0.00    +0.041 C 
ENDBRANCH  13  15
ENDBRANCH  12  13
ENDBRANCH   2  12
TORSDOF 6
