REMARK  Name = =
REMARK  7 active torsions:
REMARK  status: ('A' for Active; 'I' for Inactive)
REMARK    1  A    between atoms: C_1  and  C_9
REMARK    2  A    between atoms: C_2  and  O_14
REMARK    3  A    between atoms: C_5  and  O_10
REMARK    4  A    between atoms: O_10  and  N_11
REMARK    5  A    between atoms: N_11  and  N_12
REMARK    6  A    between atoms: O_14  and  N_15
REMARK    7  A    between atoms: N_15  and  C_16
REMARK                            x       y       z     vdW  Elec       q    Type
REMARK                         _______ _______ _______ _____ _____    ______ ____
ROOT
ATOM      1  C   UNL     1      51.748 155.936  29.101  0.00  0.00    +0.034 C 
ATOM      2  C   UNL     1      52.604 156.405  28.115  0.00  0.00    +0.170 C 
ATOM      3  C   UNL     1      52.846 157.773  27.988  0.00  0.00    +0.043 C 
ATOM      4  C   UNL     1      52.222 158.647  28.858  0.00  0.00    +0.043 C 
ATOM      5  C   UNL     1      51.367 158.222  29.849  0.00  0.00    +0.174 C 
ATOM      6  C   UNL     1      51.145 156.844  29.950  0.00  0.00    +0.040 C 
ENDROOT
BRANCH   1   9
ATOM      7  N   UNL     1      50.135 153.980  29.080  0.00  0.00    -0.292 NA
ATOM      8  C   UNL     1      50.814 153.896  30.362  0.00  0.00    +0.089 C 
ATOM      9  C   UNL     1      51.515 154.472  29.212  0.00  0.00    +0.096 C 
ATOM     10  H   UNL     1      49.945 153.131  28.547  0.00  0.00    +0.124 HD
ENDBRANCH   1   9
BRANCH   5  11
ATOM     11  O   UNL     1      50.739 159.116  30.726  0.00  0.00    -0.362 OA
BRANCH  11  12
ATOM     12  N   UNL     1      49.520 159.689  30.474  0.00  0.00    -0.137 N 
ATOM     13  H   UNL     1      48.860 159.183  29.947  0.00  0.00    +0.231 HD
BRANCH  12  14
ATOM     14  N   UNL     1      49.175 160.969  30.938  0.00  0.00    -0.139 NA
ATOM     15  C   UNL     1      49.947 161.572  31.778  0.00  0.00    +0.145 C 
ENDBRANCH  12  14
ENDBRANCH  11  12
ENDBRANCH   5  11
BRANCH   2  16
ATOM     16  O   UNL     1      53.192 155.488  27.284  0.00  0.00    -0.379 OA
BRANCH  16  17
ATOM     17  N   UNL     1      54.080 155.728  26.293  0.00  0.00    -0.220 N 
ATOM     18  H   UNL     1      54.625 156.548  26.289  0.00  0.00    +0.207 HD
BRANCH  17  19
ATOM     19  C   UNL     1      54.204 154.753  25.248  0.00  0.00    +0.092 C 
ATOM     20  C   UNL     1      55.067 154.952  24.189  0.00  0.00    +0.041 C 
ATOM     21  C   UNL     1      55.219 154.043  23.164  0.00  0.00    +0.100 C 
ATOM     22  N   UNL     1      54.493 152.916  23.201  0.00  0.00    -0.242 NA
ATOM     23  C   UNL     1      53.639 152.699  24.230  0.00  0.00    +0.100 C 
ATOM     24  C   UNL     1      53.469 153.589  25.264  0.00  0.00    +0.041 C 
ENDBRANCH  17  19
ENDBRANCH  16  17
ENDBRANCH   2  16
TORSDOF 7
