REMARK  Name = =
REMARK  8 active torsions:
REMARK  status: ('A' for Active; 'I' for Inactive)
REMARK    1  A    between atoms: C_1  and  C_9
REMARK    2  A    between atoms: C_2  and  O_19
REMARK    3  A    between atoms: C_5  and  O_15
REMARK    4  A    between atoms: N_7  and  C_14
REMARK    5  A    between atoms: O_15  and  N_16
REMARK    6  A    between atoms: N_16  and  N_17
REMARK    7  A    between atoms: O_19  and  N_20
REMARK    8  A    between atoms: N_20  and  C_21
REMARK                            x       y       z     vdW  Elec       q    Type
REMARK                         _______ _______ _______ _____ _____    ______ ____
ROOT
ATOM      1  C   UNL     1      51.976 155.339  27.814  0.00  0.00    +0.034 C 
ATOM      2  C   UNL     1      52.246 156.588  28.349  0.00  0.00    +0.170 C 
ATOM      3  C   UNL     1      53.047 157.513  27.705  0.00  0.00    +0.043 C 
ATOM      4  C   UNL     1      53.606 157.203  26.484  0.00  0.00    +0.043 C 
ATOM      5  C   UNL     1      53.357 155.980  25.934  0.00  0.00    +0.174 C 
ATOM      6  C   UNL     1      52.553 155.064  26.592  0.00  0.00    +0.040 C 
ENDROOT
BRANCH   1   9
ATOM      7  N   UNL     1      51.282 152.995  28.565  0.00  0.00    -0.256 NA
ATOM      8  C   UNL     1      51.530 153.770  29.819  0.00  0.00    +0.094 C 
ATOM      9  C   UNL     1      51.126 154.369  28.488  0.00  0.00    +0.100 C 
BRANCH   7  14
ATOM     10  N   UNL     1      51.646 150.886  27.726  0.00  0.00    -0.286 NA
ATOM     11  C   UNL     1      52.058 150.773  26.372  0.00  0.00    +0.070 C 
ATOM     12  C   UNL     1      52.773 152.044  25.997  0.00  0.00    +0.020 C 
ATOM     13  C   UNL     1      53.357 152.470  27.315  0.00  0.00    +0.034 C 
ATOM     14  C   UNL     1      52.296 152.080  28.310  0.00  0.00    +0.115 C 
ATOM     15  H   UNL     1      50.632 150.988  27.771  0.00  0.00    +0.124 HD
ENDBRANCH   7  14
ENDBRANCH   1   9
BRANCH   5  16
ATOM     16  O   UNL     1      53.920 155.659  24.700  0.00  0.00    -0.362 OA
BRANCH  16  17
ATOM     17  N   UNL     1      55.231 155.277  24.597  0.00  0.00    -0.137 N 
ATOM     18  H   UNL     1      55.930 155.962  24.704  0.00  0.00    +0.231 HD
BRANCH  17  19
ATOM     19  N   UNL     1      55.614 153.978  24.351  0.00  0.00    -0.139 NA
ATOM     20  C   UNL     1      56.084 153.172  25.229  0.00  0.00    +0.145 C 
ENDBRANCH  17  19
ENDBRANCH  16  17
ENDBRANCH   5  16
BRANCH   2  21
ATOM     21  O   UNL     1      51.710 156.949  29.568  0.00  0.00    -0.379 OA
BRANCH  21  22
ATOM     22  N   UNL     1      50.542 157.531  29.852  0.00  0.00    -0.220 N 
ATOM     23  H   UNL     1      49.712 157.079  29.576  0.00  0.00    +0.207 HD
BRANCH  22  24
ATOM     24  C   UNL     1      50.445 158.758  30.526  0.00  0.00    +0.092 C 
ATOM     25  C   UNL     1      49.367 159.075  31.307  0.00  0.00    +0.041 C 
ATOM     26  C   UNL     1      49.287 160.287  31.981  0.00  0.00    +0.100 C 
ATOM     27  N   UNL     1      50.306 161.152  31.845  0.00  0.00    -0.242 NA
ATOM     28  C   UNL     1      51.381 160.904  31.100  0.00  0.00    +0.100 C 
ATOM     29  C   UNL     1      51.467 159.704  30.432  0.00  0.00    +0.041 C 
ENDBRANCH  22  24
ENDBRANCH  21  22
ENDBRANCH   2  21
TORSDOF 8
