REMARK  Name = =
REMARK  2 active torsions:
REMARK  status: ('A' for Active; 'I' for Inactive)
REMARK    1  A    between atoms: C_1  and  C_7
REMARK    2  A    between atoms: C_3  and  C_12
REMARK                            x       y       z     vdW  Elec       q    Type
REMARK                         _______ _______ _______ _____ _____    ______ ____
ROOT
ATOM      1  C   UNL     1      -2.663  -3.714  29.981  0.00  0.00    +0.036 C 
ATOM      2  C   UNL     1      -2.209  -2.734  29.127  0.00  0.00    +0.013 C 
ATOM      3  C   UNL     1      -1.216  -2.969  28.188  0.00  0.00    +0.069 C 
ATOM      4  C   UNL     1      -0.675  -4.249  28.126  0.00  0.00    +0.010 C 
ATOM      5  C   UNL     1      -1.125  -5.221  28.972  0.00  0.00    +0.001 C 
ATOM      6  C   UNL     1      -2.123  -4.959  29.907  0.00  0.00    +0.003 C 
ENDROOT
BRANCH   1   7
ATOM      7  C   UNL     1      -3.729  -3.418  30.973  0.00  0.00    +0.158 C 
ATOM      8  N   UNL     1      -4.103  -4.149  31.943  0.00  0.00    -0.246 NA
ATOM      9  C   UNL     1      -5.157  -3.498  32.658  0.00  0.00    +0.174 C 
ATOM     10  C   UNL     1      -5.351  -2.227  31.931  0.00  0.00    +0.101 C 
ATOM     11  N   UNL     1      -4.506  -2.239  30.979  0.00  0.00    -0.228 NA
ENDBRANCH   1   7
BRANCH   3  12
ATOM     12  C   UNL     1      -0.763  -1.923  27.308  0.00  0.00    +0.100 C 
ATOM     13  N   UNL     1      -0.418  -1.081  26.601  0.00  0.00    -0.191 NA
ENDBRANCH   3  12
TORSDOF 2
