REMARK  Name = =
REMARK  6 active torsions:
REMARK  status: ('A' for Active; 'I' for Inactive)
REMARK    1  A    between atoms: C_1  and  C_20
REMARK    2  A    between atoms: C_7  and  N_11
REMARK    3  A    between atoms: C_9  and  O_30
REMARK    4  A    between atoms: N_11  and  N_15
REMARK    5  A    between atoms: C_17  and  C_22
REMARK    6  A    between atoms: C_24  and  C_28
REMARK                            x       y       z     vdW  Elec       q    Type
REMARK                         _______ _______ _______ _____ _____    ______ ____
ROOT
ATOM      1  C   UNL     1       0.840  -1.866  26.408  0.00  0.00    +0.061 C 
ATOM      2  C   UNL     1      -0.130  -1.160  27.365  0.00  0.00    +0.010 C 
ATOM      3  C   UNL     1      -1.407  -1.991  27.329  0.00  0.00    +0.005 C 
ATOM      4  C   UNL     1      -2.045  -1.764  26.002  0.00  0.00    +0.026 C 
ATOM      5  C   UNL     1      -1.080  -1.767  24.875  0.00  0.00    -0.022 C 
ATOM      6  C   UNL     1       0.297  -1.825  25.062  0.00  0.00    -0.006 C 
ATOM      7  C   UNL     1       1.140  -1.830  23.979  0.00  0.00    +0.074 C 
ATOM      8  C   UNL     1       0.589  -1.775  22.685  0.00  0.00    +0.053 C 
ATOM      9  C   UNL     1      -0.770  -1.717  22.476  0.00  0.00    +0.135 C 
ATOM     10  C   UNL     1      -1.594  -1.714  23.597  0.00  0.00    +0.032 C 
ENDROOT
BRANCH   7  11
ATOM     11  N   UNL     1       2.540  -1.890  24.004  0.00  0.00    -0.142 N 
ATOM     12  C   UNL     1       3.307  -0.715  24.109  0.00  0.00    +0.321 C 
ATOM     13  O   UNL     1       2.712   0.388  24.211  0.00  0.00    -0.251 OA
ATOM     14  N   UNL     1       4.737  -0.735  24.099  0.00  0.00    -0.312 N 
ATOM     15  H   UNL     1       5.217  -1.591  24.020  0.00  0.00    +0.147 HD
ATOM     16  H   UNL     1       5.242   0.107  24.171  0.00  0.00    +0.147 HD
BRANCH  11  17
ATOM     17  N   UNL     1       3.181  -3.118  23.921  0.00  0.00    +0.058 NA
ATOM     18  O   UNL     1       3.624  -3.453  22.783  0.00  0.00    -0.078 OA
ENDBRANCH  11  17
ENDBRANCH   7  11
BRANCH   1  22
ATOM     19  C   UNL     1       1.457  -5.377  27.358  0.00  0.00    +0.158 C 
ATOM     20  N   UNL     1       1.525  -4.846  28.516  0.00  0.00    -0.247 NA
ATOM     21  C   UNL     1       1.312  -3.439  28.414  0.00  0.00    +0.168 C 
ATOM     22  C   UNL     1       1.093  -3.213  26.966  0.00  0.00    +0.067 C 
ATOM     23  N   UNL     1       1.193  -4.371  26.425  0.00  0.00    -0.233 NA
BRANCH  19  24
ATOM     24  C   UNL     1       1.632  -6.822  27.095  0.00  0.00    +0.036 C 
ATOM     25  C   UNL     1       1.069  -7.430  26.006  0.00  0.00    +0.013 C 
ATOM     26  C   UNL     1       1.260  -8.786  25.785  0.00  0.00    +0.069 C 
ATOM     27  C   UNL     1       2.021  -9.544  26.661  0.00  0.00    +0.010 C 
ATOM     28  C   UNL     1       2.589  -8.932  27.760  0.00  0.00    +0.001 C 
ATOM     29  C   UNL     1       2.394  -7.586  27.970  0.00  0.00    +0.003 C 
BRANCH  26  30
ATOM     30  C   UNL     1       0.718  -9.459  24.641  0.00  0.00    +0.100 C 
ATOM     31  N   UNL     1       0.263  -9.997  23.718  0.00  0.00    -0.191 NA
ENDBRANCH  26  30
ENDBRANCH  19  24
ENDBRANCH   1  22
BRANCH   9  32
ATOM     32  O   UNL     1      -1.305  -1.664  21.196  0.00  0.00    -0.505 OA
ATOM     33  H   UNL     1      -0.737  -1.667  20.450  0.00  0.00    +0.292 HD
ENDBRANCH   9  32
TORSDOF 6
