REMARK  Name = =
REMARK  13 active torsions:
REMARK  status: ('A' for Active; 'I' for Inactive)
REMARK    1  A    between atoms: C_1  and  C_11
REMARK    2  A    between atoms: C_1  and  C_39
REMARK    3  A    between atoms: C_7  and  N_30
REMARK    4  A    between atoms: C_8  and  C_49
REMARK    5  A    between atoms: C_9  and  O_53
REMARK    6  A    between atoms: C_12  and  O_29
REMARK    7  A    between atoms: C_14  and  C_17
REMARK    8  A    between atoms: N_19  and  S_20
REMARK    9  A    between atoms: S_20  and  C_23
REMARK   10  A    between atoms: N_30  and  N_34
REMARK   11  A    between atoms: C_36  and  C_41
REMARK   12  A    between atoms: C_43  and  C_47
REMARK   13  A    between atoms: C_50  and  C_51
REMARK                            x       y       z     vdW  Elec       q    Type
REMARK                         _______ _______ _______ _____ _____    ______ ____
ROOT
ATOM      1  C   UNL     1       4.294  -6.177  23.175  0.00  0.00    +0.062 C 
ATOM      2  C   UNL     1       4.547  -7.007  21.769  0.00  0.00    +0.010 C 
ATOM      3  C   UNL     1       3.326  -7.210  21.023  0.00  0.00    +0.005 C 
ATOM      4  C   UNL     1       2.034  -7.027  21.729  0.00  0.00    +0.026 C 
ATOM      5  C   UNL     1       2.258  -7.624  23.150  0.00  0.00    -0.022 C 
ATOM      6  C   UNL     1       3.401  -7.098  23.810  0.00  0.00    -0.006 C 
ATOM      7  C   UNL     1       3.482  -7.821  25.039  0.00  0.00    +0.074 C 
ATOM      8  C   UNL     1       2.621  -8.822  25.458  0.00  0.00    +0.049 C 
ATOM      9  C   UNL     1       1.534  -9.261  24.752  0.00  0.00    +0.135 C 
ATOM     10  C   UNL     1       1.416  -8.522  23.468  0.00  0.00    +0.032 C 
ENDROOT
BRANCH   1  11
ATOM     11  C   UNL     1       3.739  -4.929  22.634  0.00  0.00    +0.016 C 
ATOM     12  C   UNL     1       2.852  -4.127  23.518  0.00  0.00    +0.130 C 
ATOM     13  C   UNL     1       2.181  -3.143  22.881  0.00  0.00    +0.041 C 
ATOM     14  C   UNL     1       2.197  -2.781  21.576  0.00  0.00    +0.058 C 
ATOM     15  C   UNL     1       3.062  -3.542  20.735  0.00  0.00    +0.004 C 
ATOM     16  C   UNL     1       3.761  -4.555  21.372  0.00  0.00    -0.001 C 
BRANCH  14  17
ATOM     17  C   UNL     1       1.376  -1.783  20.907  0.00  0.00    +0.264 C 
ATOM     18  O   UNL     1       0.878  -1.757  19.843  0.00  0.00    -0.269 OA
ATOM     19  N   UNL     1       1.142  -0.545  21.768  0.00  0.00    -0.181 N 
ATOM     20  H   UNL     1       1.512  -0.459  22.676  0.00  0.00    +0.177 HD
BRANCH  19  21
ATOM     21  S   UNL     1       0.189   0.687  21.045  0.00  0.00    +0.076 S 
ATOM     22  O   UNL     1      -0.445   1.518  22.063  0.00  0.00    -0.150 OA
ATOM     23  O   UNL     1      -0.937   0.050  20.218  0.00  0.00    -0.150 OA
BRANCH  21  24
ATOM     24  C   UNL     1       1.169   1.691  19.971  0.00  0.00    +0.125 C 
ATOM     25  C   UNL     1       1.778   2.900  20.577  0.00  0.00    +0.020 C 
ATOM     26  C   UNL     1       2.550   3.673  19.718  0.00  0.00    +0.001 C 
ATOM     27  C   UNL     1       2.695   3.260  18.350  0.00  0.00    +0.000 C 
ATOM     28  C   UNL     1       2.145   2.188  17.825  0.00  0.00    +0.001 C 
ATOM     29  C   UNL     1       1.376   1.439  18.732  0.00  0.00    +0.020 C 
ENDBRANCH  21  24
ENDBRANCH  19  21
ENDBRANCH  14  17
BRANCH  12  30
ATOM     30  O   UNL     1       2.794  -4.432  24.827  0.00  0.00    -0.506 OA
ATOM     31  H   UNL     1       3.305  -5.140  25.166  0.00  0.00    +0.292 HD
ENDBRANCH  12  30
ENDBRANCH   1  11
BRANCH   7  32
ATOM     32  N   UNL     1       4.406  -7.421  25.994  0.00  0.00    -0.142 N 
ATOM     33  C   UNL     1       3.833  -6.356  26.936  0.00  0.00    +0.321 C 
ATOM     34  O   UNL     1       4.628  -5.873  27.745  0.00  0.00    -0.251 OA
ATOM     35  N   UNL     1       2.525  -6.036  26.798  0.00  0.00    -0.312 N 
ATOM     36  H   UNL     1       1.977  -6.486  26.115  0.00  0.00    +0.147 HD
ATOM     37  H   UNL     1       2.121  -5.353  27.381  0.00  0.00    +0.147 HD
BRANCH  32  38
ATOM     38  N   UNL     1       5.576  -7.943  26.312  0.00  0.00    +0.058 NA
ATOM     39  O   UNL     1       6.194  -7.964  27.439  0.00  0.00    -0.078 OA
ENDBRANCH  32  38
ENDBRANCH   7  32
BRANCH   1  43
ATOM     40  C   UNL     1       7.917  -6.966  24.172  0.00  0.00    +0.143 C 
ATOM     41  N   UNL     1       7.640  -6.094  24.750  0.00  0.00    -0.253 NA
ATOM     42  C   UNL     1       6.434  -5.241  24.531  0.00  0.00    +0.149 C 
ATOM     43  C   UNL     1       5.700  -6.094  23.681  0.00  0.00    +0.126 C 
ATOM     44  N   UNL     1       6.437  -7.079  23.349  0.00  0.00    -0.220 NA
BRANCH  40  45
ATOM     45  C   UNL     1       8.459  -8.209  23.479  0.00  0.00    +0.032 C 
ATOM     46  C   UNL     1       8.541  -9.403  24.164  0.00  0.00    -0.000 C 
ATOM     47  C   UNL     1       9.110 -10.583  23.484  0.00  0.00    -0.003 C 
ATOM     48  C   UNL     1       9.555 -10.419  22.191  0.00  0.00    -0.003 C 
ATOM     49  C   UNL     1       9.492  -9.228  21.501  0.00  0.00    -0.000 C 
ATOM     50  C   UNL     1       8.945  -8.228  22.218  0.00  0.00    +0.003 C 
BRANCH  47  51
ATOM     51  C   UNL     1       8.486 -11.797  23.798  0.00  0.00    +0.136 C 
ATOM     52  N   UNL     1       7.905 -12.958  24.109  0.00  0.00    -0.126 NA
ENDBRANCH  47  51
ENDBRANCH  40  45
ENDBRANCH   1  43
BRANCH   8  53
ATOM     53  C   UNL     1       2.830  -9.468  26.775  0.00  0.00    +0.015 C 
ATOM     54  C   UNL     1       3.466 -10.510  27.085  0.00  0.00    +0.078 C 
BRANCH  54  55
ATOM     55  C   UNL     1       4.225 -11.556  26.560  0.00  0.00    +0.101 C 
ATOM     56  N   UNL     1       4.886 -12.499  26.096  0.00  0.00    -0.191 NA
ENDBRANCH  54  55
ENDBRANCH   8  53
BRANCH   9  57
ATOM     57  O   UNL     1       0.611 -10.142  24.970  0.00  0.00    -0.505 OA
ATOM     58  H   UNL     1       0.622 -10.646  25.760  0.00  0.00    +0.292 HD
ENDBRANCH   9  57
TORSDOF 13
