REMARK  Name = =
REMARK  1 active torsions:
REMARK  status: ('A' for Active; 'I' for Inactive)
REMARK    1  A    between atoms: C_9  and  O_11
REMARK                            x       y       z     vdW  Elec       q    Type
REMARK                         _______ _______ _______ _____ _____    ______ ____
ROOT
ATOM      1  C   UNL     1      -3.587  -3.623  31.175  0.00  0.00    +0.138 C 
ATOM      2  C   UNL     1      -3.938  -4.575  32.101  0.00  0.00    +0.012 C 
ATOM      3  C   UNL     1      -4.852  -4.329  33.241  0.00  0.00    +0.033 C 
ATOM      4  C   UNL     1      -5.385  -2.918  33.265  0.00  0.00    +0.052 C 
ATOM      5  C   UNL     1      -5.448  -2.285  31.911  0.00  0.00    +0.206 C 
ATOM      6  O   UNL     1      -4.134  -2.347  31.332  0.00  0.00    -0.476 OA
ATOM      7  C   UNL     1      -3.413  -5.834  31.968  0.00  0.00    +0.002 C 
ATOM      8  C   UNL     1      -2.549  -6.146  30.927  0.00  0.00    +0.036 C 
ATOM      9  C   UNL     1      -2.184  -5.195  29.982  0.00  0.00    +0.137 C 
ATOM     10  C   UNL     1      -2.728  -3.933  30.142  0.00  0.00    +0.073 C 
ENDROOT
BRANCH   9  11
ATOM     11  O   UNL     1      -1.319  -5.490  28.933  0.00  0.00    -0.505 OA
ATOM     12  H   UNL     1      -1.092  -4.826  28.312  0.00  0.00    +0.292 HD
ENDBRANCH   9  11
TORSDOF 1
