REMARK  Name = =
REMARK  1 active torsions:
REMARK  status: ('A' for Active; 'I' for Inactive)
REMARK    1  A    between atoms: C_14  and  O_16
REMARK                            x       y       z     vdW  Elec       q    Type
REMARK                         _______ _______ _______ _____ _____    ______ ____
ROOT
ATOM      1  C   UNL     1      -3.544  -3.850  31.027  0.00  0.00    +0.013 C 
ATOM      2  C   UNL     1      -3.046  -5.012  31.571  0.00  0.00    -0.017 C 
ATOM      3  C   UNL     1      -3.398  -5.532  32.905  0.00  0.00    +0.030 C 
ATOM      4  C   UNL     1      -4.771  -5.112  33.354  0.00  0.00    +0.045 C 
ATOM      5  C   UNL     1      -4.959  -3.629  33.359  0.00  0.00    +0.157 C 
ATOM      6  S   UNL     1      -4.677  -2.886  31.946  0.00  0.00    -0.123 S 
ATOM      7  C   UNL     1      -4.795  -1.143  31.703  0.00  0.00    +0.067 C 
ATOM      8  C   UNL     1      -6.277  -0.935  31.767  0.00  0.00    +0.082 C 
ATOM      9  N   UNL     1      -6.962  -2.099  31.378  0.00  0.00    -0.266 NA
ATOM     10  C   UNL     1      -6.397  -3.264  31.980  0.00  0.00    +0.215 C 
ATOM     11  O   UNL     1      -6.328  -3.288  33.355  0.00  0.00    -0.325 OA
ATOM     12  C   UNL     1      -2.140  -5.778  30.829  0.00  0.00    -0.001 C 
ATOM     13  C   UNL     1      -1.720  -5.419  29.571  0.00  0.00    +0.036 C 
ATOM     14  C   UNL     1      -2.226  -4.251  29.037  0.00  0.00    +0.134 C 
ATOM     15  C   UNL     1      -3.121  -3.488  29.760  0.00  0.00    +0.041 C 
ATOM     16  H   UNL     1      -6.909  -2.191  30.364  0.00  0.00    +0.126 HD
ENDROOT
BRANCH  14  17
ATOM     17  O   UNL     1      -1.835  -3.840  27.767  0.00  0.00    -0.505 OA
ATOM     18  H   UNL     1      -1.228  -4.356  27.274  0.00  0.00    +0.292 HD
ENDBRANCH  14  17
TORSDOF 1
