REMARK  Name = =
REMARK  2 active torsions:
REMARK  status: ('A' for Active; 'I' for Inactive)
REMARK    1  A    between atoms: S_6  and  N_17
REMARK    2  A    between atoms: C_14  and  O_19
REMARK                            x       y       z     vdW  Elec       q    Type
REMARK                         _______ _______ _______ _____ _____    ______ ____
ROOT
ATOM      1  C   UNL     1      -1.489  -4.968  30.610  0.00  0.00    +0.024 C 
ATOM      2  C   UNL     1      -1.099  -5.966  29.827  0.00  0.00    -0.017 C 
ATOM      3  C   UNL     1      -1.983  -7.171  29.751  0.00  0.00    +0.030 C 
ATOM      4  C   UNL     1      -1.732  -7.522  31.242  0.00  0.00    +0.047 C 
ATOM      5  C   UNL     1      -2.121  -6.399  32.045  0.00  0.00    +0.180 C 
ATOM      6  S   UNL     1      -3.085  -5.032  31.580  0.00  0.00    -0.069 S 
ATOM      7  C   UNL     1      -3.527  -3.650  32.780  0.00  0.00    +0.078 C 
ATOM      8  C   UNL     1      -4.829  -4.014  33.264  0.00  0.00    +0.083 C 
ATOM      9  N   UNL     1      -4.488  -5.282  33.822  0.00  0.00    -0.267 NA
ATOM     10  C   UNL     1      -3.304  -5.695  33.226  0.00  0.00    +0.212 C 
ATOM     11  O   UNL     1      -3.008  -6.931  32.972  0.00  0.00    -0.324 OA
ATOM     12  C   UNL     1       0.056  -5.981  29.106  0.00  0.00    -0.001 C 
ATOM     13  C   UNL     1       0.875  -4.861  29.207  0.00  0.00    +0.036 C 
ATOM     14  C   UNL     1       0.498  -3.816  30.006  0.00  0.00    +0.134 C 
ATOM     15  C   UNL     1      -0.702  -3.886  30.709  0.00  0.00    +0.042 C 
ATOM     16  H   UNL     1      -5.228  -5.957  33.631  0.00  0.00    +0.126 HD
ENDROOT
BRANCH   6  17
ATOM     17  N   UNL     1      -4.243  -4.385  30.184  0.00  0.00    -0.229 NA
ATOM     18  C   UNL     1      -4.957  -3.411  30.327  0.00  0.00    +0.126 C 
ENDBRANCH   6  17
BRANCH  14  19
ATOM     19  O   UNL     1       1.243  -2.672  30.165  0.00  0.00    -0.505 OA
ATOM     20  H   UNL     1       2.058  -2.577  29.713  0.00  0.00    +0.292 HD
ENDBRANCH  14  19
TORSDOF 2
REMARK  Name = =
REMARK  2 active torsions:
REMARK  status: ('A' for Active; 'I' for Inactive)
REMARK    1  A    between atoms: S_6  and  N_17
REMARK    2  A    between atoms: C_14  and  O_19
REMARK                            x       y       z     vdW  Elec       q    Type
REMARK                         _______ _______ _______ _____ _____    ______ ____
ROOT
ATOM      1  H   UNK     1      -4.434  -6.172  30.959  0.00  0.00    +0.000 HD
ENDROOT
TORSDOF 0
