REMARK  Name = =
REMARK  4 active torsions:
REMARK  status: ('A' for Active; 'I' for Inactive)
REMARK    1  A    between atoms: S_6  and  N_16
REMARK    2  A    between atoms: C_8  and  O_19
REMARK    3  A    between atoms: C_14  and  O_18
REMARK    4  A    between atoms: O_19  and  O_20
REMARK                            x       y       z     vdW  Elec       q    Type
REMARK                         _______ _______ _______ _____ _____    ______ ____
ROOT
ATOM      1  C   UNL     1      -3.103  -5.326  31.917  0.00  0.00    +0.014 C 
ATOM      2  C   UNL     1      -3.785  -6.367  31.499  0.00  0.00    -0.017 C 
ATOM      3  C   UNL     1      -4.138  -6.489  30.091  0.00  0.00    +0.030 C 
ATOM      4  C   UNL     1      -4.705  -5.097  29.870  0.00  0.00    +0.046 C 
ATOM      5  C   UNL     1      -3.475  -4.439  29.554  0.00  0.00    +0.171 C 
ATOM      6  S   UNL     1      -2.358  -3.993  30.818  0.00  0.00    -0.109 S 
ATOM      7  C   UNL     1      -0.599  -4.349  30.749  0.00  0.00    +0.100 C 
ATOM      8  C   UNL     1       0.181  -3.544  29.799  0.00  0.00    +0.221 C 
ATOM      9  N   UNL     1      -0.709  -3.595  28.745  0.00  0.00    -0.243 NA
ATOM     10  C   UNL     1      -2.013  -3.771  29.110  0.00  0.00    +0.204 C 
ATOM     11  O   UNL     1      -2.422  -5.082  28.886  0.00  0.00    -0.325 OA
ATOM     12  C   UNL     1      -4.224  -7.395  32.301  0.00  0.00    -0.001 C 
ATOM     13  C   UNL     1      -3.952  -7.383  33.664  0.00  0.00    +0.036 C 
ATOM     14  C   UNL     1      -3.260  -6.345  34.146  0.00  0.00    +0.134 C 
ATOM     15  C   UNL     1      -2.846  -5.337  33.280  0.00  0.00    +0.041 C 
ATOM     16  H   UNL     1      -3.098  -3.558  31.872  0.00  0.00    +0.098 HD
ATOM     17  H   UNL     1      -0.639  -2.719  28.227  0.00  0.00    +0.128 HD
ENDROOT
BRANCH   6  18
ATOM     18  N   UNL     1      -3.543  -2.554  31.695  0.00  0.00    -0.239 NA
ATOM     19  C   UNL     1      -4.162  -1.802  30.990  0.00  0.00    +0.125 C 
ENDBRANCH   6  18
BRANCH  14  20
ATOM     20  O   UNL     1      -2.940  -6.238  35.482  0.00  0.00    -0.505 OA
ATOM     21  H   UNL     1      -3.208  -6.905  36.083  0.00  0.00    +0.292 HD
ENDBRANCH  14  20
BRANCH   8  22
ATOM     22  O   UNL     1       1.341  -4.208  29.505  0.00  0.00    -0.209 OA
BRANCH  22  23
ATOM     23  O   UNL     1       2.156  -4.089  30.526  0.00  0.00    -0.248 OA
ATOM     24  H   UNL     1       2.985  -4.555  30.334  0.00  0.00    +0.253 HD
ENDBRANCH  22  23
ENDBRANCH   8  22
TORSDOF 4
