REMARK  Name = =
REMARK  5 active torsions:
REMARK  status: ('A' for Active; 'I' for Inactive)
REMARK    1  A    between atoms: S_6  and  N_18
REMARK    2  A    between atoms: C_8  and  O_21
REMARK    3  A    between atoms: C_13  and  N_17
REMARK    4  A    between atoms: C_14  and  O_20
REMARK    5  A    between atoms: O_21  and  O_22
REMARK                            x       y       z     vdW  Elec       q    Type
REMARK                         _______ _______ _______ _____ _____    ______ ____
ROOT
ATOM      1  C   UNL     1      -1.825  -5.212  30.648  0.00  0.00    +0.024 C 
ATOM      2  C   UNL     1      -2.959  -5.823  31.029  0.00  0.00    -0.015 C 
ATOM      3  C   UNL     1      -2.891  -7.297  31.271  0.00  0.00    +0.030 C 
ATOM      4  C   UNL     1      -1.878  -7.411  32.295  0.00  0.00    +0.047 C 
ATOM      5  C   UNL     1      -0.733  -6.595  31.984  0.00  0.00    +0.180 C 
ATOM      6  S   UNL     1      -0.210  -6.048  30.433  0.00  0.00    -0.067 S 
ATOM      7  C   UNL     1       1.292  -5.004  30.150  0.00  0.00    +0.111 C 
ATOM      8  C   UNL     1       2.371  -5.947  29.873  0.00  0.00    +0.222 C 
ATOM      9  N   UNL     1       2.288  -6.659  31.107  0.00  0.00    -0.242 NA
ATOM     10  C   UNL     1       1.044  -6.439  31.663  0.00  0.00    +0.213 C 
ATOM     11  O   UNL     1       0.382  -7.300  32.366  0.00  0.00    -0.323 OA
ATOM     12  C   UNL     1      -4.182  -5.218  31.191  0.00  0.00    +0.013 C 
ATOM     13  C   UNL     1      -4.258  -3.894  30.945  0.00  0.00    +0.075 C 
ATOM     14  C   UNL     1      -3.171  -3.185  30.552  0.00  0.00    +0.147 C 
ATOM     15  C   UNL     1      -1.971  -3.875  30.414  0.00  0.00    +0.043 C 
ATOM     16  H   UNL     1       3.012  -6.327  31.744  0.00  0.00    +0.128 HD
ENDROOT
BRANCH  13  17
ATOM     17  N   UNL     1      -5.538  -3.280  31.118  0.00  0.00    -0.355 N 
ATOM     18  H   UNL     1      -6.309  -3.821  31.404  0.00  0.00    +0.142 HD
ATOM     19  H   UNL     1      -5.648  -2.316  30.951  0.00  0.00    +0.142 HD
ENDBRANCH  13  17
BRANCH   6  20
ATOM     20  N   UNL     1      -0.436  -6.580  28.552  0.00  0.00    -0.229 NA
ATOM     21  C   UNL     1      -0.628  -5.749  27.690  0.00  0.00    +0.126 C 
ENDBRANCH   6  20
BRANCH  14  22
ATOM     22  O   UNL     1      -3.226  -1.828  30.291  0.00  0.00    -0.504 OA
ATOM     23  H   UNL     1      -4.035  -1.365  30.385  0.00  0.00    +0.292 HD
ENDBRANCH  14  22
BRANCH   8  24
ATOM     24  O   UNL     1       2.189  -6.750  28.750  0.00  0.00    -0.209 OA
BRANCH  24  25
ATOM     25  O   UNL     1       3.242  -6.579  27.949  0.00  0.00    -0.248 OA
ATOM     26  H   UNL     1       3.139  -7.130  27.157  0.00  0.00    +0.253 HD
ENDBRANCH  24  25
ENDBRANCH   8  24
TORSDOF 5
REMARK  Name = =
REMARK  5 active torsions:
REMARK  status: ('A' for Active; 'I' for Inactive)
REMARK    1  A    between atoms: S_6  and  N_18
REMARK    2  A    between atoms: C_8  and  O_21
REMARK    3  A    between atoms: C_13  and  N_17
REMARK    4  A    between atoms: C_14  and  O_20
REMARK    5  A    between atoms: O_21  and  O_22
REMARK                            x       y       z     vdW  Elec       q    Type
REMARK                         _______ _______ _______ _____ _____    ______ ____
ROOT
ATOM      1  H   UNK     1      -0.183  -7.865  29.914  0.00  0.00    +0.000 HD
ENDROOT
TORSDOF 0
