REMARK  Name = =
REMARK  7 active torsions:
REMARK  status: ('A' for Active; 'I' for Inactive)
REMARK    1  A    between atoms: S_6  and  N_17
REMARK    2  A    between atoms: C_8  and  O_20
REMARK    3  A    between atoms: C_12  and  C_22
REMARK    4  A    between atoms: C_13  and  N_16
REMARK    5  A    between atoms: C_14  and  O_19
REMARK    6  A    between atoms: O_20  and  O_21
REMARK    7  A    between atoms: C_22  and  C_23
REMARK                            x       y       z     vdW  Elec       q    Type
REMARK                         _______ _______ _______ _____ _____    ______ ____
ROOT
ATOM      1  C   UNL     1       1.445  -7.254  28.242  0.00  0.00    +0.014 C 
ATOM      2  C   UNL     1       0.769  -6.773  29.292  0.00  0.00    -0.020 C 
ATOM      3  C   UNL     1       1.208  -5.490  29.861  0.00  0.00    +0.030 C 
ATOM      4  C   UNL     1       0.858  -4.687  28.587  0.00  0.00    +0.046 C 
ATOM      5  C   UNL     1       1.486  -5.166  27.433  0.00  0.00    +0.171 C 
ATOM      6  S   UNL     1       2.862  -6.250  27.420  0.00  0.00    -0.109 S 
ATOM      7  C   UNL     1       3.868  -6.818  25.947  0.00  0.00    +0.100 C 
ATOM      8  C   UNL     1       3.994  -5.538  25.094  0.00  0.00    +0.221 C 
ATOM      9  N   UNL     1       2.869  -4.693  25.479  0.00  0.00    -0.243 NA
ATOM     10  C   UNL     1       2.168  -5.696  25.946  0.00  0.00    +0.204 C 
ATOM     11  O   UNL     1       0.903  -5.912  26.467  0.00  0.00    -0.325 OA
ATOM     12  C   UNL     1      -0.308  -7.411  29.865  0.00  0.00    -0.005 C 
ATOM     13  C   UNL     1      -0.669  -8.609  29.285  0.00  0.00    +0.072 C 
ATOM     14  C   UNL     1      -0.033  -9.159  28.221  0.00  0.00    +0.147 C 
ATOM     15  C   UNL     1       1.059  -8.423  27.712  0.00  0.00    +0.042 C 
ATOM     16  H   UNL     1       3.802  -6.550  26.485  0.00  0.00    +0.098 HD
ATOM     17  H   UNL     1       2.426  -4.226  24.688  0.00  0.00    +0.128 HD
ENDROOT
BRANCH  13  18
ATOM     18  N   UNL     1      -1.776  -9.304  29.838  0.00  0.00    -0.355 N 
ATOM     19  H   UNL     1      -2.257  -8.929  30.611  0.00  0.00    +0.142 HD
ATOM     20  H   UNL     1      -2.063 -10.162  29.449  0.00  0.00    +0.142 HD
ENDBRANCH  13  18
BRANCH   6  21
ATOM     21  N   UNL     1       4.005  -5.093  28.555  0.00  0.00    -0.239 NA
ATOM     22  C   UNL     1       4.376  -4.046  28.094  0.00  0.00    +0.125 C 
ENDBRANCH   6  21
BRANCH  14  23
ATOM     23  O   UNL     1      -0.315 -10.333  27.583  0.00  0.00    -0.504 OA
ATOM     24  H   UNL     1      -1.028 -10.865  27.875  0.00  0.00    +0.292 HD
ENDBRANCH  14  23
BRANCH   8  25
ATOM     25  O   UNL     1       5.203  -4.963  25.057  0.00  0.00    -0.209 OA
BRANCH  25  26
ATOM     26  O   UNL     1       5.903  -5.340  24.017  0.00  0.00    -0.248 OA
ATOM     27  H   UNL     1       6.767  -4.900  24.032  0.00  0.00    +0.253 HD
ENDBRANCH  25  26
ENDBRANCH   8  25
BRANCH  12  28
ATOM     28  C   UNL     1      -1.016  -6.909  31.007  0.00  0.00    +0.053 C 
BRANCH  28  29
ATOM     29  C   UNL     1      -0.680  -7.544  32.299  0.00  0.00    -0.021 C 
ATOM     30  C   UNL     1       0.484  -7.354  32.876  0.00  0.00    -0.005 C 
ENDBRANCH  28  29
ENDBRANCH  12  28
TORSDOF 7
