REMARK  Name = =
REMARK  10 active torsions:
REMARK  status: ('A' for Active; 'I' for Inactive)
REMARK    1  A    between atoms: S_6  and  N_16
REMARK    2  A    between atoms: C_8  and  O_25
REMARK    3  A    between atoms: C_12  and  C_27
REMARK    4  A    between atoms: C_13  and  N_23
REMARK    5  A    between atoms: C_14  and  O_24
REMARK    6  A    between atoms: N_16  and  C_17
REMARK    7  A    between atoms: C_17  and  N_18
REMARK    8  A    between atoms: N_21  and  O_22
REMARK    9  A    between atoms: O_25  and  O_26
REMARK   10  A    between atoms: C_27  and  C_28
REMARK                            x       y       z     vdW  Elec       q    Type
REMARK                         _______ _______ _______ _____ _____    ______ ____
ROOT
ATOM      1  C   UNL     1       2.089  -7.008  26.042  0.00  0.00    +0.010 C 
ATOM      2  C   UNL     1       1.878  -8.353  26.128  0.00  0.00    -0.020 C 
ATOM      3  C   UNL     1       1.839  -9.048  27.462  0.00  0.00    +0.030 C 
ATOM      4  C   UNL     1       3.242  -8.382  27.816  0.00  0.00    +0.046 C 
ATOM      5  C   UNL     1       2.668  -7.127  28.180  0.00  0.00    +0.167 C 
ATOM      6  S   UNL     1       2.072  -5.799  27.361  0.00  0.00    -0.126 S 
ATOM      7  C   UNL     1       1.676  -4.295  28.283  0.00  0.00    +0.096 C 
ATOM      8  C   UNL     1       0.399  -4.359  29.011  0.00  0.00    +0.221 C 
ATOM      9  N   UNL     1       0.389  -5.641  29.421  0.00  0.00    -0.243 NA
ATOM     10  C   UNL     1       1.638  -6.168  29.095  0.00  0.00    +0.200 C 
ATOM     11  O   UNL     1       1.393  -7.403  28.874  0.00  0.00    -0.326 OA
ATOM     12  C   UNL     1       1.871  -9.262  25.108  0.00  0.00    -0.005 C 
ATOM     13  C   UNL     1       2.111  -8.811  23.820  0.00  0.00    +0.072 C 
ATOM     14  C   UNL     1       2.341  -7.519  23.596  0.00  0.00    +0.147 C 
ATOM     15  C   UNL     1       2.330  -6.661  24.661  0.00  0.00    +0.042 C 
ATOM     16  H   UNL     1       1.323  -6.177  28.431  0.00  0.00    +0.093 HD
ATOM     17  H   UNL     1      -0.348  -6.159  28.943  0.00  0.00    +0.128 HD
ENDROOT
BRANCH  13  18
ATOM     18  N   UNL     1       2.117  -9.776  22.758  0.00  0.00    -0.355 N 
ATOM     19  H   UNL     1       1.943 -10.725  22.954  0.00  0.00    +0.142 HD
ATOM     20  H   UNL     1       2.295  -9.489  21.833  0.00  0.00    +0.142 HD
ENDBRANCH  13  18
BRANCH  14  21
ATOM     21  O   UNL     1       2.586  -7.058  22.315  0.00  0.00    -0.504 OA
ATOM     22  H   UNL     1       2.591  -7.657  21.594  0.00  0.00    +0.292 HD
ENDBRANCH  14  21
BRANCH   6  23
ATOM     23  N   UNL     1       3.890  -4.764  26.992  0.00  0.00    -0.167 NA
BRANCH  23  24
ATOM     24  C   UNL     1       4.510  -5.411  26.335  0.00  0.00    +0.192 C 
BRANCH  24  25
ATOM     25  N   UNL     1       5.770  -5.095  25.876  0.00  0.00    -0.272 N 
ATOM     26  C   UNL     1       6.392  -6.166  25.178  0.00  0.00    +0.324 C 
ATOM     27  O   UNL     1       5.764  -7.234  25.078  0.00  0.00    -0.251 OA
ATOM     28  N   UNL     1       7.671  -5.993  24.635  0.00  0.00    -0.181 N 
ATOM     29  H   UNL     1       6.196  -4.218  26.017  0.00  0.00    +0.152 HD
ATOM     30  H   UNL     1       8.144  -5.135  24.729  0.00  0.00    +0.184 HD
BRANCH  28  31
ATOM     31  O   UNL     1       8.243  -7.027  23.979  0.00  0.00    -0.294 OA
ATOM     32  H   UNL     1       7.639  -7.786  23.983  0.00  0.00    +0.241 HD
ENDBRANCH  28  31
ENDBRANCH  24  25
ENDBRANCH  23  24
ENDBRANCH   6  23
BRANCH   8  33
ATOM     33  O   UNL     1       0.357  -3.392  29.981  0.00  0.00    -0.209 OA
BRANCH  33  34
ATOM     34  O   UNL     1      -0.449  -2.445  29.593  0.00  0.00    -0.248 OA
ATOM     35  H   UNL     1      -0.487  -1.754  30.273  0.00  0.00    +0.253 HD
ENDBRANCH  33  34
ENDBRANCH   8  33
BRANCH  12  36
ATOM     36  C   UNL     1       1.652 -10.723  25.296  0.00  0.00    +0.053 C 
BRANCH  36  37
ATOM     37  C   UNL     1       2.896 -11.452  25.581  0.00  0.00    -0.021 C 
ATOM     38  C   UNL     1       3.096 -12.384  26.502  0.00  0.00    -0.005 C 
ENDBRANCH  36  37
ENDBRANCH  12  36
TORSDOF 10
