REMARK  Name = =
REMARK  11 active torsions:
REMARK  status: ('A' for Active; 'I' for Inactive)
REMARK    1  A    between atoms: S_6  and  N_16
REMARK    2  A    between atoms: C_8  and  O_25
REMARK    3  A    between atoms: C_12  and  C_27
REMARK    4  A    between atoms: C_13  and  N_23
REMARK    5  A    between atoms: C_14  and  O_24
REMARK    6  A    between atoms: N_16  and  C_17
REMARK    7  A    between atoms: C_17  and  N_18
REMARK    8  A    between atoms: N_21  and  O_22
REMARK    9  A    between atoms: O_25  and  O_26
REMARK   10  A    between atoms: C_27  and  C_28
REMARK   11  A    between atoms: C_27  and  C_30
REMARK                            x       y       z     vdW  Elec       q    Type
REMARK                         _______ _______ _______ _____ _____    ______ ____
ROOT
ATOM      1  C   UNL     1       2.317  -6.590  25.816  0.00  0.00    +0.010 C 
ATOM      2  C   UNL     1       2.067  -7.830  26.401  0.00  0.00    -0.020 C 
ATOM      3  C   UNL     1       1.941  -8.180  27.857  0.00  0.00    +0.030 C 
ATOM      4  C   UNL     1       2.494  -7.016  28.650  0.00  0.00    +0.046 C 
ATOM      5  C   UNL     1       3.454  -6.568  27.659  0.00  0.00    +0.167 C 
ATOM      6  S   UNL     1       2.722  -5.091  26.804  0.00  0.00    -0.126 S 
ATOM      7  C   UNL     1       2.827  -3.482  27.475  0.00  0.00    +0.096 C 
ATOM      8  C   UNL     1       4.301  -3.052  27.639  0.00  0.00    +0.221 C 
ATOM      9  N   UNL     1       4.581  -4.047  28.492  0.00  0.00    -0.243 NA
ATOM     10  C   UNL     1       3.654  -5.112  28.397  0.00  0.00    +0.200 C 
ATOM     11  O   UNL     1       4.553  -5.935  27.889  0.00  0.00    -0.326 OA
ATOM     12  C   UNL     1       1.816  -8.978  25.649  0.00  0.00    -0.000 C 
ATOM     13  C   UNL     1       1.809  -8.896  24.300  0.00  0.00    +0.072 C 
ATOM     14  C   UNL     1       2.028  -7.770  23.626  0.00  0.00    +0.147 C 
ATOM     15  C   UNL     1       2.267  -6.680  24.445  0.00  0.00    +0.042 C 
ATOM     16  H   UNL     1       3.853  -4.438  26.423  0.00  0.00    +0.093 HD
ATOM     17  H   UNL     1       4.562  -3.679  29.443  0.00  0.00    +0.128 HD
ENDROOT
BRANCH  13  18
ATOM     18  N   UNL     1       1.561 -10.064  23.500  0.00  0.00    -0.355 N 
ATOM     19  H   UNL     1       1.391 -10.931  23.934  0.00  0.00    +0.142 HD
ATOM     20  H   UNL     1       1.561  -9.997  22.518  0.00  0.00    +0.142 HD
ENDBRANCH  13  18
BRANCH  14  21
ATOM     21  O   UNL     1       2.035  -7.601  22.266  0.00  0.00    -0.504 OA
ATOM     22  H   UNL     1       1.874  -8.332  21.702  0.00  0.00    +0.292 HD
ENDBRANCH  14  21
BRANCH   6  23
ATOM     23  N   UNL     1       0.740  -4.802  26.727  0.00  0.00    -0.167 NA
BRANCH  23  24
ATOM     24  C   UNL     1       0.227  -5.067  27.742  0.00  0.00    +0.192 C 
BRANCH  24  25
ATOM     25  N   UNL     1      -1.110  -4.920  27.920  0.00  0.00    -0.272 N 
ATOM     26  C   UNL     1      -1.543  -4.903  29.266  0.00  0.00    +0.324 C 
ATOM     27  O   UNL     1      -0.634  -4.997  30.120  0.00  0.00    -0.251 OA
ATOM     28  N   UNL     1      -2.911  -4.777  29.530  0.00  0.00    -0.181 N 
ATOM     29  H   UNL     1      -1.735  -4.831  27.165  0.00  0.00    +0.152 HD
ATOM     30  H   UNL     1      -3.575  -4.721  28.805  0.00  0.00    +0.184 HD
BRANCH  28  31
ATOM     31  O   UNL     1      -3.273  -4.736  30.827  0.00  0.00    -0.294 OA
ATOM     32  H   UNL     1      -2.483  -4.804  31.386  0.00  0.00    +0.241 HD
ENDBRANCH  28  31
ENDBRANCH  24  25
ENDBRANCH  23  24
ENDBRANCH   6  23
BRANCH   8  33
ATOM     33  O   UNL     1       4.945  -3.074  26.407  0.00  0.00    -0.209 OA
BRANCH  33  34
ATOM     34  O   UNL     1       5.458  -1.875  26.217  0.00  0.00    -0.248 OA
ATOM     35  H   UNL     1       5.918  -1.852  25.363  0.00  0.00    +0.253 HD
ENDBRANCH  33  34
ENDBRANCH   8  33
BRANCH  12  36
ATOM     36  C   UNL     1       1.503 -10.300  26.267  0.00  0.00    +0.086 C 
BRANCH  36  37
ATOM     37  C   UNL     1       0.188 -10.815  25.709  0.00  0.00    +0.071 C 
ATOM     38  N   UNL     1       0.110 -12.041  25.433  0.00  0.00    -0.301 NA
ATOM     39  H   UNL     1      -0.727 -12.411  25.069  0.00  0.00    +0.186 HD
ENDBRANCH  36  37
BRANCH  36  40
ATOM     40  C   UNL     1       2.570 -11.256  25.847  0.00  0.00    -0.016 C 
ATOM     41  C   UNL     1       3.697 -11.408  26.529  0.00  0.00    -0.004 C 
ENDBRANCH  36  40
ENDBRANCH  12  36
TORSDOF 11
