REMARK  Name = =
REMARK  11 active torsions:
REMARK  status: ('A' for Active; 'I' for Inactive)
REMARK    1  A    between atoms: S_6  and  N_16
REMARK    2  A    between atoms: S_6  and  C_24
REMARK    3  A    between atoms: C_8  and  O_28
REMARK    4  A    between atoms: C_12  and  C_30
REMARK    5  A    between atoms: C_13  and  N_23
REMARK    6  A    between atoms: C_14  and  O_27
REMARK    7  A    between atoms: N_21  and  O_22
REMARK    8  A    between atoms: N_25  and  O_26
REMARK    9  A    between atoms: O_28  and  O_29
REMARK   10  A    between atoms: C_30  and  C_31
REMARK   11  A    between atoms: C_30  and  C_33
REMARK                            x       y       z     vdW  Elec       q    Type
REMARK                         _______ _______ _______ _____ _____    ______ ____
ROOT
ATOM      1  C   UNL     1       2.137  -6.600  26.953  0.00  0.00    +0.022 C 
ATOM      2  C   UNL     1       2.326  -7.841  27.348  0.00  0.00    -0.019 C 
ATOM      3  C   UNL     1       2.291  -8.051  28.808  0.00  0.00    +0.030 C 
ATOM      4  C   UNL     1       0.873  -7.567  28.974  0.00  0.00    +0.047 C 
ATOM      5  C   UNL     1       0.549  -6.351  28.297  0.00  0.00    +0.178 C 
ATOM      6  S   UNL     1       1.849  -5.129  28.138  0.00  0.00    -0.058 S 
ATOM      7  C   UNL     1       1.397  -3.355  27.611  0.00  0.00    +0.108 C 
ATOM      8  C   UNL     1       0.241  -3.018  28.580  0.00  0.00    +0.222 C 
ATOM      9  N   UNL     1      -0.514  -4.230  28.711  0.00  0.00    -0.242 NA
ATOM     10  C   UNL     1       0.080  -4.843  27.677  0.00  0.00    +0.211 C 
ATOM     11  O   UNL     1       0.059  -6.107  27.122  0.00  0.00    -0.324 OA
ATOM     12  C   UNL     1       2.539  -8.916  26.543  0.00  0.00    -0.000 C 
ATOM     13  C   UNL     1       2.551  -8.642  25.182  0.00  0.00    +0.072 C 
ATOM     14  C   UNL     1       2.366  -7.405  24.684  0.00  0.00    +0.147 C 
ATOM     15  C   UNL     1       2.154  -6.370  25.614  0.00  0.00    +0.043 C 
ATOM     16  H   UNL     1      -1.515  -4.093  28.572  0.00  0.00    +0.128 HD
ENDROOT
BRANCH   6  17
ATOM     17  N   UNL     1       3.638  -4.767  28.110  0.00  0.00    -0.217 NA
ATOM     18  C   UNL     1       4.323  -4.261  27.349  0.00  0.00    +0.173 C 
ATOM     19  N   UNL     1       3.922  -3.753  26.093  0.00  0.00    -0.249 N 
ATOM     20  C   UNL     1       4.573  -2.479  25.823  0.00  0.00    +0.328 C 
ATOM     21  O   UNL     1       5.187  -2.113  26.871  0.00  0.00    -0.250 OA
ATOM     22  N   UNL     1       4.452  -1.881  24.591  0.00  0.00    -0.181 N 
ATOM     23  H   UNL     1       3.290  -4.199  25.484  0.00  0.00    +0.158 HD
ATOM     24  H   UNL     1       3.937  -2.299  23.863  0.00  0.00    +0.184 HD
BRANCH  22  25
ATOM     25  O   UNL     1       5.076  -0.688  24.426  0.00  0.00    -0.294 OA
ATOM     26  H   UNL     1       5.528  -0.443  25.249  0.00  0.00    +0.241 HD
ENDBRANCH  22  25
ENDBRANCH   6  17
BRANCH  13  27
ATOM     27  N   UNL     1       2.764  -9.704  24.269  0.00  0.00    -0.355 N 
ATOM     28  H   UNL     1       2.902 -10.620  24.603  0.00  0.00    +0.142 HD
ATOM     29  H   UNL     1       2.774  -9.526  23.301  0.00  0.00    +0.142 HD
ENDBRANCH  13  27
BRANCH   6  30
ATOM     30  C   UNL     1       2.313  -5.084  30.056  0.00  0.00    +0.167 C 
ATOM     31  N   UNL     1       1.740  -4.183  30.730  0.00  0.00    -0.079 NA
BRANCH  31  32
ATOM     32  O   UNL     1       1.969  -4.050  32.025  0.00  0.00    -0.408 OA
ATOM     33  H   UNL     1       1.536  -3.376  32.511  0.00  0.00    +0.328 HD
ENDBRANCH  31  32
ENDBRANCH   6  30
BRANCH  14  34
ATOM     34  O   UNL     1       2.359  -7.026  23.373  0.00  0.00    -0.504 OA
ATOM     35  H   UNL     1       2.494  -7.664  22.700  0.00  0.00    +0.292 HD
ENDBRANCH  14  34
BRANCH   8  36
ATOM     36  O   UNL     1      -0.547  -2.104  27.863  0.00  0.00    -0.209 OA
BRANCH  36  37
ATOM     37  O   UNL     1      -0.774  -1.027  28.556  0.00  0.00    -0.248 OA
ATOM     38  H   UNL     1      -1.319  -0.417  28.036  0.00  0.00    +0.253 HD
ENDBRANCH  36  37
ENDBRANCH   8  36
BRANCH  12  39
ATOM     39  C   UNL     1       2.748 -10.283  26.977  0.00  0.00    +0.086 C 
BRANCH  39  40
ATOM     40  C   UNL     1       4.002 -10.881  26.360  0.00  0.00    +0.071 C 
ATOM     41  N   UNL     1       5.152 -10.391  26.520  0.00  0.00    -0.301 NA
ATOM     42  H   UNL     1       5.932 -10.818  26.098  0.00  0.00    +0.186 HD
ENDBRANCH  39  40
BRANCH  39  43
ATOM     43  C   UNL     1       1.620 -11.103  26.399  0.00  0.00    -0.016 C 
ATOM     44  C   UNL     1       0.499 -11.214  27.071  0.00  0.00    -0.004 C 
ENDBRANCH  39  43
ENDBRANCH  12  39
TORSDOF 11
