REMARK  Name = =
REMARK  14 active torsions:
REMARK  status: ('A' for Active; 'I' for Inactive)
REMARK    1  A    between atoms: S_6  and  N_16
REMARK    2  A    between atoms: S_6  and  C_24
REMARK    3  A    between atoms: C_8  and  O_28
REMARK    4  A    between atoms: C_12  and  C_30
REMARK    5  A    between atoms: C_13  and  N_23
REMARK    6  A    between atoms: C_14  and  O_27
REMARK    7  A    between atoms: N_16  and  C_17
REMARK    8  A    between atoms: C_17  and  N_18
REMARK    9  A    between atoms: N_21  and  O_22
REMARK   10  A    between atoms: N_25  and  O_26
REMARK   11  A    between atoms: O_28  and  O_29
REMARK   12  A    between atoms: C_30  and  C_31
REMARK   13  A    between atoms: C_30  and  C_36
REMARK   14  A    between atoms: C_31  and  C_33
REMARK                            x       y       z     vdW  Elec       q    Type
REMARK                         _______ _______ _______ _____ _____    ______ ____
ROOT
ATOM      1  C   UNL     1       2.282  -4.387  26.392  0.00  0.00    +0.017 C 
ATOM      2  C   UNL     1       3.219  -3.471  25.923  0.00  0.00    -0.019 C 
ATOM      3  C   UNL     1       3.171  -2.218  26.693  0.00  0.00    +0.030 C 
ATOM      4  C   UNL     1       1.774  -1.951  26.060  0.00  0.00    +0.046 C 
ATOM      5  C   UNL     1       0.850  -3.045  26.325  0.00  0.00    +0.174 C 
ATOM      6  S   UNL     1       1.104  -4.002  27.827  0.00  0.00    -0.077 S 
ATOM      7  C   UNL     1       0.524  -2.693  28.971  0.00  0.00    +0.104 C 
ATOM      8  C   UNL     1      -0.915  -2.661  29.103  0.00  0.00    +0.221 C 
ATOM      9  N   UNL     1      -1.510  -3.498  28.192  0.00  0.00    -0.243 NA
ATOM     10  C   UNL     1      -0.457  -3.415  27.273  0.00  0.00    +0.207 C 
ATOM     11  O   UNL     1      -0.065  -2.171  27.088  0.00  0.00    -0.325 OA
ATOM     12  C   UNL     1       4.034  -3.612  24.855  0.00  0.00    -0.000 C 
ATOM     13  C   UNL     1       3.898  -4.800  24.176  0.00  0.00    +0.072 C 
ATOM     14  C   UNL     1       3.008  -5.738  24.577  0.00  0.00    +0.147 C 
ATOM     15  C   UNL     1       2.209  -5.522  25.685  0.00  0.00    +0.043 C 
ATOM     16  H   UNL     1      -2.390  -3.133  27.827  0.00  0.00    +0.128 HD
ENDROOT
BRANCH  13  17
ATOM     17  N   UNL     1       4.648  -5.073  23.008  0.00  0.00    -0.355 N 
ATOM     18  H   UNL     1       4.533  -5.931  22.539  0.00  0.00    +0.142 HD
ATOM     19  H   UNL     1       5.284  -4.405  22.664  0.00  0.00    +0.142 HD
ENDBRANCH  13  17
BRANCH   6  20
ATOM     20  C   UNL     1       2.463  -4.601  28.982  0.00  0.00    +0.162 C 
ATOM     21  N   UNL     1       2.588  -4.573  30.192  0.00  0.00    -0.079 NA
BRANCH  21  22
ATOM     22  O   UNL     1       1.757  -4.083  31.152  0.00  0.00    -0.408 OA
ATOM     23  H   UNL     1       2.001  -4.138  32.055  0.00  0.00    +0.328 HD
ENDBRANCH  21  22
ENDBRANCH   6  20
BRANCH  14  24
ATOM     24  O   UNL     1       2.819  -6.971  23.931  0.00  0.00    -0.504 OA
ATOM     25  H   UNL     1       3.326  -7.185  23.173  0.00  0.00    +0.292 HD
ENDBRANCH  14  24
BRANCH   6  26
ATOM     26  N   UNL     1       0.188  -5.800  28.256  0.00  0.00    -0.160 NA
BRANCH  26  27
ATOM     27  C   UNL     1       0.229  -6.008  29.409  0.00  0.00    +0.193 C 
BRANCH  27  28
ATOM     28  N   UNL     1      -0.296  -7.128  29.969  0.00  0.00    -0.272 N 
ATOM     29  C   UNL     1      -0.073  -7.257  31.357  0.00  0.00    +0.324 C 
ATOM     30  O   UNL     1       0.575  -6.348  31.898  0.00  0.00    -0.251 OA
ATOM     31  N   UNL     1      -0.593  -8.390  32.009  0.00  0.00    -0.181 N 
ATOM     32  H   UNL     1      -0.794  -7.798  29.447  0.00  0.00    +0.152 HD
ATOM     33  H   UNL     1      -1.103  -9.085  31.534  0.00  0.00    +0.184 HD
BRANCH  31  34
ATOM     34  O   UNL     1      -0.344  -8.454  33.325  0.00  0.00    -0.294 OA
ATOM     35  H   UNL     1       0.169  -7.676  33.595  0.00  0.00    +0.241 HD
ENDBRANCH  31  34
ENDBRANCH  27  28
ENDBRANCH  26  27
ENDBRANCH   6  26
BRANCH   8  36
ATOM     36  O   UNL     1      -1.348  -1.335  28.822  0.00  0.00    -0.209 OA
BRANCH  36  37
ATOM     37  O   UNL     1      -2.465  -1.035  29.404  0.00  0.00    -0.248 OA
ATOM     38  H   UNL     1      -2.712  -0.124  29.179  0.00  0.00    +0.253 HD
ENDBRANCH  36  37
ENDBRANCH   8  36
BRANCH  12  39
ATOM     39  C   UNL     1       4.948  -2.537  24.429  0.00  0.00    +0.089 C 
BRANCH  39  40
ATOM     40  C   UNL     1       4.617  -1.739  23.281  0.00  0.00    +0.110 C 
ATOM     41  N   UNL     1       4.732  -2.309  22.084  0.00  0.00    -0.298 NA
ATOM     42  H   UNL     1       5.023  -3.247  22.011  0.00  0.00    +0.187 HD
BRANCH  40  43
ATOM     43  C   UNL     1       4.185  -0.371  23.249  0.00  0.00    +0.256 C 
ATOM     44  O   UNL     1       4.972   0.577  23.383  0.00  0.00    -0.269 OA
ATOM     45  N   UNL     1       2.810  -0.002  23.060  0.00  0.00    -0.324 N 
ATOM     46  H   UNL     1       2.124  -0.699  22.946  0.00  0.00    +0.145 HD
ATOM     47  H   UNL     1       2.553   0.948  23.044  0.00  0.00    +0.145 HD
ENDBRANCH  40  43
ENDBRANCH  39  40
BRANCH  39  48
ATOM     48  C   UNL     1       5.347  -1.703  25.589  0.00  0.00    -0.016 C 
ATOM     49  C   UNL     1       6.600  -1.555  25.961  0.00  0.00    -0.004 C 
ENDBRANCH  39  48
ENDBRANCH  12  39
TORSDOF 14
