REMARK  Name = =
REMARK  0 active torsions:
REMARK  status: ('A' for Active; 'I' for Inactive)
REMARK                            x       y       z     vdW  Elec       q    Type
REMARK                         _______ _______ _______ _____ _____    ______ ____
ROOT
ATOM      1  S   UNL     1       0.677  -6.700  33.622  0.00  0.00    -0.115 S 
ATOM      2  C   UNL     1       0.505  -6.442  31.832  0.00  0.00    +0.086 C 
ATOM      3  C   UNL     1       1.854  -6.185  31.305  0.00  0.00    +0.001 C 
ATOM      4  C   UNL     1       2.809  -5.542  31.901  0.00  0.00    +0.060 C 
ATOM      5  N   UNL     1       2.684  -4.981  33.182  0.00  0.00    -0.275 N 
ATOM      6  C   UNL     1       1.524  -5.164  34.051  0.00  0.00    +0.146 C 
ATOM      7  C   UNL     1       2.515  -5.187  35.153  0.00  0.00    +0.085 C 
ATOM      8  C   UNL     1       3.207  -4.216  34.220  0.00  0.00    +0.213 C 
ATOM      9  O   UNL     1       3.934  -3.177  34.375  0.00  0.00    -0.202 OA
ENDROOT
TORSDOF 0
