REMARK  Name = =
REMARK  1 active torsions:
REMARK  status: ('A' for Active; 'I' for Inactive)
REMARK    1  A    between atoms: N_3  and  N_4
REMARK                            x       y       z     vdW  Elec       q    Type
REMARK                         _______ _______ _______ _____ _____    ______ ____
ROOT
ATOM      1  C   UNL     1      -4.907  -3.301  31.515  0.00  0.00    +0.320 C 
ATOM      2  O   UNL     1      -4.687  -3.282  32.754  0.00  0.00    -0.263 OA
ATOM      3  N   UNL     1      -4.196  -4.261  30.742  0.00  0.00    -0.198 N 
ATOM      4  H   UNL     1      -4.363  -4.282  29.772  0.00  0.00    +0.178 HD
ENDROOT
BRANCH   3   5
ATOM      5  N   UNL     1      -3.288  -5.165  31.256  0.00  0.00    -0.176 NA
ATOM      6  C   UNL     1      -3.500  -6.412  31.420  0.00  0.00    +0.140 C 
ENDBRANCH   3   5
TORSDOF 1
