REMARK  Name = =
REMARK  5 active torsions:
REMARK  status: ('A' for Active; 'I' for Inactive)
REMARK    1  A    between atoms: O_1  and  N_4
REMARK    2  A    between atoms: O_1  and  C_7
REMARK    3  A    between atoms: N_4  and  N_5
REMARK    4  A    between atoms: C_7  and  C_9
REMARK    5  A    between atoms: C_9  and  O_11
REMARK                            x       y       z     vdW  Elec       q    Type
REMARK                         _______ _______ _______ _____ _____    ______ ____
ROOT
ATOM      1  O   UNL     1     -11.875  -7.848  23.589  0.00  0.00    -0.353 OA
ENDROOT
BRANCH   1   4
ATOM      2  C   UNL     1     -10.977  -8.514  21.394  0.00  0.00    +0.361 C 
ATOM      3  O   UNL     1     -10.062  -9.271  21.857  0.00  0.00    -0.260 OA
ATOM      4  N   UNL     1     -11.880  -7.804  22.223  0.00  0.00    -0.007 N 
BRANCH   4   5
ATOM      5  N   UNL     1     -12.839  -7.011  21.602  0.00  0.00    -0.137 NA
ATOM      6  C   UNL     1     -12.450  -6.084  20.805  0.00  0.00    +0.144 C 
ENDBRANCH   4   5
ENDBRANCH   1   4
BRANCH   1   7
ATOM      7  C   UNL     1     -11.186  -6.945  24.383  0.00  0.00    +0.248 C 
ATOM      8  C   UNL     1     -10.038  -7.339  24.888  0.00  0.00    +0.050 C 
BRANCH   7   9
ATOM      9  C   UNL     1     -11.752  -5.629  24.618  0.00  0.00    +0.376 C 
ATOM     10  O   UNL     1     -11.034  -4.663  24.951  0.00  0.00    -0.242 OA
BRANCH   9  11
ATOM     11  O   UNL     1     -13.117  -5.479  24.462  0.00  0.00    -0.475 OA
ATOM     12  H   UNL     1     -13.643  -6.213  24.212  0.00  0.00    +0.296 HD
ENDBRANCH   9  11
ENDBRANCH   7   9
ENDBRANCH   1   7
TORSDOF 5
