REMARK  Name = =
REMARK  6 active torsions:
REMARK  status: ('A' for Active; 'I' for Inactive)
REMARK    1  A    between atoms: N_3  and  N_4
REMARK    2  A    between atoms: N_3  and  O_13
REMARK    3  A    between atoms: C_5  and  C_6
REMARK    4  A    between atoms: O_13  and  C_14
REMARK    5  A    between atoms: C_14  and  C_16
REMARK    6  A    between atoms: C_16  and  O_18
REMARK                            x       y       z     vdW  Elec       q    Type
REMARK                         _______ _______ _______ _____ _____    ______ ____
ROOT
ATOM      1  C   UNL     1     -11.922  -8.141  21.848  0.00  0.00    +0.361 C 
ATOM      2  O   UNL     1     -11.015  -8.990  21.706  0.00  0.00    -0.260 OA
ATOM      3  N   UNL     1     -11.903  -7.283  22.952  0.00  0.00    -0.007 N 
ENDROOT
BRANCH   3   4
ATOM      4  N   UNL     1     -12.907  -6.339  23.113  0.00  0.00    -0.140 NA
ATOM      5  C   UNL     1     -13.711  -6.484  24.123  0.00  0.00    +0.138 C 
BRANCH   5   6
ATOM      6  C   UNL     1     -14.781  -5.501  24.317  0.00  0.00    +0.211 C 
ATOM      7  O   UNL     1     -14.271  -4.173  24.536  0.00  0.00    -0.446 OA
ATOM      8  C   UNL     1     -15.256  -3.213  24.722  0.00  0.00    +0.317 C 
ATOM      9  O   UNL     1     -15.045  -1.995  24.894  0.00  0.00    -0.250 OA
ATOM     10  C   UNL     1     -16.666  -3.687  24.715  0.00  0.00    +0.110 C 
ATOM     11  C   UNL     1     -16.894  -4.545  23.480  0.00  0.00    +0.016 C 
ATOM     12  C   UNL     1     -15.698  -5.382  23.118  0.00  0.00    +0.051 C 
ENDBRANCH   5   6
ENDBRANCH   3   4
BRANCH   3  13
ATOM     13  O   UNL     1     -10.914  -7.353  23.878  0.00  0.00    -0.353 OA
BRANCH  13  14
ATOM     14  C   UNL     1      -9.726  -6.651  23.881  0.00  0.00    +0.248 C 
ATOM     15  C   UNL     1      -9.648  -5.363  23.591  0.00  0.00    +0.050 C 
BRANCH  14  16
ATOM     16  C   UNL     1      -8.507  -7.388  24.227  0.00  0.00    +0.376 C 
ATOM     17  O   UNL     1      -7.424  -6.793  24.212  0.00  0.00    -0.242 OA
BRANCH  16  18
ATOM     18  O   UNL     1      -8.525  -8.737  24.574  0.00  0.00    -0.475 OA
ATOM     19  H   UNL     1      -9.336  -9.206  24.591  0.00  0.00    +0.296 HD
ENDBRANCH  16  18
ENDBRANCH  14  16
ENDBRANCH  13  14
ENDBRANCH   3  13
TORSDOF 6
