REMARK  Name = =
REMARK  3 active torsions:
REMARK  status: ('A' for Active; 'I' for Inactive)
REMARK    1  A    between atoms: S_1  and  C_10
REMARK    2  A    between atoms: C_4  and  N_18
REMARK    3  A    between atoms: C_7  and  C_25
REMARK                            x       y       z     vdW  Elec       q    Type
REMARK                         _______ _______ _______ _____ _____    ______ ____
ROOT
ATOM      1  S   UNL     1      -9.232  -1.835  22.464  0.00  0.00    -0.138 S 
ATOM      2  C   UNL     1      -7.439  -1.594  22.512  0.00  0.00    +0.075 C 
ATOM      3  C   UNL     1      -6.867  -2.578  21.602  0.00  0.00    +0.015 C 
ATOM      4  C   UNL     1      -7.212  -3.835  21.518  0.00  0.00    +0.108 C 
ATOM      5  N   UNL     1      -8.248  -4.287  22.391  0.00  0.00    -0.240 N 
ATOM      6  C   UNL     1      -9.434  -3.457  22.627  0.00  0.00    +0.128 C 
ATOM      7  C   UNL     1      -9.687  -4.154  23.909  0.00  0.00    +0.126 C 
ATOM      8  C   UNL     1      -8.845  -5.233  23.278  0.00  0.00    +0.235 C 
ATOM      9  O   UNL     1      -8.709  -6.459  23.446  0.00  0.00    -0.274 OA
ATOM     10  H   UNL     1      -9.906  -1.546  21.319  0.00  0.00    +0.094 HD
ENDROOT
BRANCH   1  11
ATOM     11  C   UNL     1     -10.050  -0.604  23.537  0.00  0.00    +0.259 C 
ATOM     12  O   UNL     1      -9.522  -0.469  24.630  0.00  0.00    -0.264 OA
ATOM     13  N   UNL     1     -11.167   0.104  23.128  0.00  0.00    -0.269 N 
ATOM     14  C   UNL     1     -11.685  -0.172  21.778  0.00  0.00    +0.113 C 
ATOM     15  C   UNL     1     -12.867   0.730  21.548  0.00  0.00    +0.110 C 
ATOM     16  N   UNL     1     -12.555   2.118  21.759  0.00  0.00    -0.214 NA
ATOM     17  C   UNL     1     -11.962   2.364  23.041  0.00  0.00    +0.110 C 
ATOM     18  C   UNL     1     -11.878   1.084  23.884  0.00  0.00    +0.113 C 
ENDBRANCH   1  11
BRANCH   4  19
ATOM     19  N   UNL     1      -6.626  -4.784  20.609  0.00  0.00    -0.247 N 
ATOM     20  C   UNL     1      -7.140  -4.808  19.282  0.00  0.00    +0.230 C 
ATOM     21  O   UNL     1      -8.292  -4.343  19.061  0.00  0.00    -0.275 OA
ATOM     22  C   UNL     1      -6.293  -5.384  18.204  0.00  0.00    +0.086 C 
ATOM     23  C   UNL     1      -5.624  -6.612  18.781  0.00  0.00    +0.011 C 
ATOM     24  C   UNL     1      -4.786  -6.277  19.991  0.00  0.00    +0.022 C 
ATOM     25  C   UNL     1      -5.577  -5.634  21.089  0.00  0.00    +0.099 C 
ENDBRANCH   4  19
BRANCH   7  26
ATOM     26  C   UNL     1     -11.145  -4.560  24.029  0.00  0.00    +0.130 C 
ATOM     27  N   UNL     1     -11.317  -5.756  24.804  0.00  0.00    -0.268 N 
ATOM     28  C   UNL     1     -11.863  -6.735  23.945  0.00  0.00    +0.402 C 
ATOM     29  O   UNL     1     -12.321  -7.851  24.313  0.00  0.00    -0.226 OA
ATOM     30  O   UNL     1     -11.827  -6.297  22.625  0.00  0.00    -0.433 OA
ATOM     31  C   UNL     1     -11.735  -4.883  22.694  0.00  0.00    +0.230 C 
ATOM     32  H   UNL     1     -11.096  -5.872  25.756  0.00  0.00    +0.153 HD
ENDBRANCH   7  26
TORSDOF 3
