REMARK  Name = =
REMARK  0 active torsions:
REMARK  status: ('A' for Active; 'I' for Inactive)
REMARK                            x       y       z     vdW  Elec       q    Type
REMARK                         _______ _______ _______ _____ _____    ______ ____
ROOT
ATOM      1  C   UNL     1      -4.369  -4.105  30.430  0.00  0.00    +0.013 C 
ATOM      2  C   UNL     1      -3.226  -4.139  29.772  0.00  0.00    +0.068 C 
ATOM      3 CL   UNL     1      -2.176  -5.524  29.936  0.00  0.00    -0.081 Cl
ENDROOT
TORSDOF 0
