REMARK  Name = =
REMARK  1 active torsions:
REMARK  status: ('A' for Active; 'I' for Inactive)
REMARK    1  A    between atoms: N_1  and  C_6
REMARK                            x       y       z     vdW  Elec       q    Type
REMARK                         _______ _______ _______ _____ _____    ______ ____
ROOT
ATOM      1  N   UNL     1      -5.744  -2.278  32.329  0.00  0.00    -0.306 N 
ATOM      2  C   UNL     1      -5.072  -3.002  31.277  0.00  0.00    +0.091 C 
ATOM      3  C   UNL     1      -3.987  -3.742  32.011  0.00  0.00    +0.023 C 
ATOM      4  C   UNL     1      -4.754  -4.222  33.244  0.00  0.00    +0.023 C 
ATOM      5  C   UNL     1      -5.721  -3.086  33.513  0.00  0.00    +0.091 C 
ENDROOT
BRANCH   1   6
ATOM      6  C   UNL     1      -6.315  -0.996  32.179  0.00  0.00    +0.074 C 
ATOM      7  C   UNL     1      -5.685   0.010  31.590  0.00  0.00    +0.084 C 
ATOM      8 CL   UNL     1      -6.357   1.592  31.392  0.00  0.00    -0.080 Cl
ENDBRANCH   1   6
TORSDOF 1
