REMARK  Name = =
REMARK  2 active torsions:
REMARK  status: ('A' for Active; 'I' for Inactive)
REMARK    1  A    between atoms: C_1  and  C_6
REMARK    2  A    between atoms: C_1  and  N_9
REMARK                            x       y       z     vdW  Elec       q    Type
REMARK                         _______ _______ _______ _____ _____    ______ ____
ROOT
ATOM      1  C   UNL     1      -7.325  -0.700  32.129  0.00  0.00    +0.082 C 
ATOM      2  C   UNL     1      -6.437  -1.356  32.851  0.00  0.00    +0.084 C 
ATOM      3 CL   UNL     1      -6.720  -3.035  33.224  0.00  0.00    -0.080 Cl
ENDROOT
BRANCH   1   6
ATOM      4  O   UNL     1     -10.183  -2.756  31.575  0.00  0.00    -0.241 OA
ATOM      5  N   UNL     1      -9.148  -2.400  32.263  0.00  0.00    -0.047 NA
ATOM      6  C   UNL     1      -8.543  -1.379  31.644  0.00  0.00    +0.159 C 
ATOM      7  C   UNL     1      -9.291  -1.137  30.522  0.00  0.00    +0.167 C 
ATOM      8  N   UNL     1     -10.290  -2.016  30.529  0.00  0.00    -0.047 NA
ENDBRANCH   1   6
BRANCH   1   9
ATOM      9  N   UNL     1      -7.087   0.664  31.829  0.00  0.00    -0.306 N 
ATOM     10  C   UNL     1      -8.021   1.731  32.103  0.00  0.00    +0.091 C 
ATOM     11  C   UNL     1      -7.972   2.552  30.845  0.00  0.00    +0.023 C 
ATOM     12  C   UNL     1      -6.602   2.277  30.261  0.00  0.00    +0.023 C 
ATOM     13  C   UNL     1      -5.948   1.312  31.222  0.00  0.00    +0.091 C 
ENDBRANCH   1   9
TORSDOF 2
