REMARK  Name = =
REMARK  5 active torsions:
REMARK  status: ('A' for Active; 'I' for Inactive)
REMARK    1  A    between atoms: C_3  and  C_6
REMARK    2  A    between atoms: C_4  and  O_14
REMARK    3  A    between atoms: C_6  and  N_9
REMARK    4  A    between atoms: O_14  and  C_15
REMARK    5  A    between atoms: C_18  and  C_21
REMARK                            x       y       z     vdW  Elec       q    Type
REMARK                         _______ _______ _______ _____ _____    ______ ____
ROOT
ATOM      1  O   UNL     1      -8.232  -2.453  32.772  0.00  0.00    -0.238 OA
ATOM      2  N   UNL     1      -8.455  -1.240  32.456  0.00  0.00    -0.044 NA
ATOM      3  C   UNL     1      -7.333  -0.748  31.817  0.00  0.00    +0.193 A 
ATOM      4  C   UNL     1      -6.454  -1.777  31.794  0.00  0.00    +0.290 A 
ATOM      5  N   UNL     1      -7.070  -2.822  32.407  0.00  0.00    -0.010 NA
ENDROOT
BRANCH   3   6
ATOM      6  C   UNL     1      -7.247   0.601  31.324  0.00  0.00    +0.085 C 
ATOM      7  C   UNL     1      -6.250   1.409  31.375  0.00  0.00    +0.084 C 
ATOM      8 CL   UNL     1      -4.708   1.113  32.055  0.00  0.00    -0.080 Cl
BRANCH   6   9
ATOM      9  N   UNL     1      -8.470   1.099  30.681  0.00  0.00    -0.305 N 
ATOM     10  C   UNL     1      -9.160   2.284  31.064  0.00  0.00    +0.091 C 
ATOM     11  C   UNL     1     -10.340   2.405  30.112  0.00  0.00    +0.023 C 
ATOM     12  C   UNL     1      -9.788   1.655  28.892  0.00  0.00    +0.023 C 
ATOM     13  C   UNL     1      -9.123   0.463  29.594  0.00  0.00    +0.091 C 
ENDBRANCH   6   9
ENDBRANCH   3   6
BRANCH   4  14
ATOM     14  O   UNL     1      -5.210  -1.849  31.293  0.00  0.00    -0.433 OA
BRANCH  14  15
ATOM     15  C   UNL     1      -4.433  -2.949  31.098  0.00  0.00    +0.147 C 
ATOM     16  C   UNL     1      -4.230  -3.975  31.975  0.00  0.00    +0.038 C 
ATOM     17  C   UNL     1      -3.407  -5.063  31.671  0.00  0.00    +0.003 C 
ATOM     18  C   UNL     1      -2.761  -5.144  30.461  0.00  0.00    +0.000 C 
ATOM     19  C   UNL     1      -2.948  -4.108  29.540  0.00  0.00    +0.003 C 
ATOM     20  C   UNL     1      -3.760  -3.057  29.868  0.00  0.00    +0.038 C 
BRANCH  18  21
ATOM     21  C   UNL     1      -1.891  -6.239  30.074  0.00  0.00    +0.000 C 
ATOM     22  C   UNL     1      -1.736  -7.291  30.845  0.00  0.00    +0.000 C 
ENDBRANCH  18  21
ENDBRANCH  14  15
ENDBRANCH   4  14
TORSDOF 5
