REMARK  Name = =
REMARK  7 active torsions:
REMARK  status: ('A' for Active; 'I' for Inactive)
REMARK    1  A    between atoms: O_1  and  C_2
REMARK    2  A    between atoms: O_1  and  C_17
REMARK    3  A    between atoms: C_3  and  S_8
REMARK    4  A    between atoms: C_5  and  C_12
REMARK    5  A    between atoms: S_8  and  N_11
REMARK    6  A    between atoms: C_16  and  C_19
REMARK    7  A    between atoms: C_19  and  N_22
REMARK                            x       y       z     vdW  Elec       q    Type
REMARK                         _______ _______ _______ _____ _____    ______ ____
ROOT
ATOM      1  O   UNL     1      -6.101  -1.489  31.374  0.00  0.00    -0.431 OA
ENDROOT
BRANCH   1   2
ATOM      2  C   UNL     1      -7.011  -0.534  31.170  0.00  0.00    +0.166 C 
ATOM      3  C   UNL     1      -8.381  -0.618  31.276  0.00  0.00    +0.156 C 
ATOM      4  C   UNL     1      -9.175   0.499  31.015  0.00  0.00    +0.023 C 
ATOM      5  C   UNL     1      -8.673   1.715  30.648  0.00  0.00    +0.002 C 
ATOM      6  C   UNL     1      -7.287   1.814  30.536  0.00  0.00    +0.003 C 
ATOM      7  C   UNL     1      -6.503   0.721  30.791  0.00  0.00    +0.039 C 
BRANCH   3   8
ATOM      8  S   UNL     1      -9.122  -2.112  31.714  0.00  0.00    +0.060 S 
ATOM      9  O   UNL     1      -9.264  -2.287  33.211  0.00  0.00    -0.153 OA
ATOM     10  O   UNL     1      -8.539  -3.305  31.052  0.00  0.00    -0.153 OA
BRANCH   8  11
ATOM     11  N   UNL     1     -10.798  -2.051  31.176  0.00  0.00    -0.203 NA
ATOM     12  H   UNL     1     -11.261  -1.246  31.598  0.00  0.00    +0.144 HD
ATOM     13  H   UNL     1     -11.277  -2.906  31.458  0.00  0.00    +0.144 HD
ENDBRANCH   8  11
ENDBRANCH   3   8
BRANCH   5  14
ATOM     14  C   UNL     1      -9.518   2.875  30.379  0.00  0.00    +0.000 C 
ATOM     15  C   UNL     1     -10.761   2.739  29.983  0.00  0.00    +0.000 C 
ENDBRANCH   5  14
ENDBRANCH   1   2
BRANCH   1  19
ATOM     16  O   UNL     1      -5.211  -2.914  34.340  0.00  0.00    -0.238 OA
ATOM     17  N   UNL     1      -4.369  -3.546  33.615  0.00  0.00    -0.044 NA
ATOM     18  C   UNL     1      -4.550  -3.117  32.312  0.00  0.00    +0.193 A 
ATOM     19  C   UNL     1      -5.563  -2.188  32.349  0.00  0.00    +0.290 A 
ATOM     20  N   UNL     1      -5.923  -2.116  33.642  0.00  0.00    -0.010 NA
BRANCH  18  21
ATOM     21  C   UNL     1      -3.733  -3.660  31.269  0.00  0.00    +0.085 C 
ATOM     22  C   UNL     1      -3.191  -3.032  30.282  0.00  0.00    +0.084 C 
ATOM     23 CL   UNL     1      -3.288  -1.333  29.916  0.00  0.00    -0.080 Cl
BRANCH  21  24
ATOM     24  N   UNL     1      -3.471  -5.099  31.318  0.00  0.00    -0.305 N 
ATOM     25  C   UNL     1      -4.418  -6.173  31.509  0.00  0.00    +0.091 C 
ATOM     26  C   UNL     1      -3.691  -7.088  32.458  0.00  0.00    +0.023 C 
ATOM     27  C   UNL     1      -2.212  -6.753  32.309  0.00  0.00    +0.023 C 
ATOM     28  C   UNL     1      -2.184  -5.745  31.181  0.00  0.00    +0.091 C 
ENDBRANCH  21  24
ENDBRANCH  18  21
ENDBRANCH   1  19
TORSDOF 7
