REMARK  Name = =
REMARK  4 active torsions:
REMARK  status: ('A' for Active; 'I' for Inactive)
REMARK    1  A    between atoms: C_2  and  C_10
REMARK    2  A    between atoms: C_6  and  C_7
REMARK    3  A    between atoms: C_7  and  O_9
REMARK    4  A    between atoms: C_10  and  O_12
REMARK                            x       y       z     vdW  Elec       q    Type
REMARK                         _______ _______ _______ _____ _____    ______ ____
ROOT
ATOM      1  C   UNL     1      -4.188  -4.090  31.363  0.00  0.00    +0.012 C 
ATOM      2  C   UNL     1      -2.962  -4.650  30.770  0.00  0.00    +0.073 C 
ATOM      3  C   UNL     1      -2.156  -3.858  30.095  0.00  0.00    +0.121 C 
ATOM      4  N   UNL     1      -2.378  -2.480  29.888  0.00  0.00    -0.328 N 
ATOM      5  C   UNL     1      -3.538  -1.890  30.435  0.00  0.00    +0.065 C 
ATOM      6  C   UNL     1      -4.375  -2.650  31.120  0.00  0.00    +0.090 C 
ATOM      7  H   UNL     1      -1.736  -1.940  29.372  0.00  0.00    +0.147 HD
ENDROOT
BRANCH   6   8
ATOM      8  C   UNL     1      -5.579  -1.999  31.677  0.00  0.00    +0.339 C 
ATOM      9  O   UNL     1      -5.837  -0.811  31.401  0.00  0.00    -0.245 OA
BRANCH   8  10
ATOM     10  O   UNL     1      -6.436  -2.689  32.508  0.00  0.00    -0.477 OA
ATOM     11  H   UNL     1      -6.258  -3.583  32.727  0.00  0.00    +0.295 HD
ENDBRANCH   8  10
ENDBRANCH   6   8
BRANCH   2  12
ATOM     12  C   UNL     1      -2.645  -6.083  30.933  0.00  0.00    +0.336 C 
ATOM     13  O   UNL     1      -3.336  -6.761  31.710  0.00  0.00    -0.245 OA
BRANCH  12  14
ATOM     14  O   UNL     1      -1.610  -6.699  30.255  0.00  0.00    -0.477 OA
ATOM     15  H   UNL     1      -1.077  -6.204  29.664  0.00  0.00    +0.295 HD
ENDBRANCH  12  14
ENDBRANCH   2  12
TORSDOF 4
