REMARK  Name = =
REMARK  5 active torsions:
REMARK  status: ('A' for Active; 'I' for Inactive)
REMARK    1  A    between atoms: C_1  and  N_7
REMARK    2  A    between atoms: C_2  and  C_16
REMARK    3  A    between atoms: C_6  and  C_13
REMARK    4  A    between atoms: C_13  and  O_15
REMARK    5  A    between atoms: C_16  and  O_18
REMARK                            x       y       z     vdW  Elec       q    Type
REMARK                         _______ _______ _______ _____ _____    ______ ____
ROOT
ATOM      1  C   UNL     1      -1.115  -4.896  30.633  0.00  0.00    +0.059 C 
ATOM      2  C   UNL     1       0.244  -4.542  30.328  0.00  0.00    +0.086 C 
ATOM      3  C   UNL     1       0.486  -3.383  29.658  0.00  0.00    +0.122 C 
ATOM      4  N   UNL     1      -0.511  -2.495  29.237  0.00  0.00    -0.328 N 
ATOM      5  C   UNL     1      -1.848  -2.860  29.544  0.00  0.00    +0.066 C 
ATOM      6  C   UNL     1      -2.130  -3.954  30.182  0.00  0.00    +0.103 C 
ATOM      7  H   UNL     1      -0.297  -1.664  28.755  0.00  0.00    +0.147 HD
ENDROOT
BRANCH   1   8
ATOM      8  N   UNL     1      -1.575  -6.231  30.712  0.00  0.00    -0.304 N 
ATOM      9  C   UNL     1      -1.713  -6.912  31.910  0.00  0.00    +0.110 C 
ATOM     10  C   UNL     1      -1.247  -8.308  32.069  0.00  0.00    +0.110 C 
ATOM     11  N   UNL     1      -0.636  -8.825  30.882  0.00  0.00    -0.214 NA
ATOM     12  C   UNL     1      -1.551  -8.481  29.790  0.00  0.00    +0.110 C 
ATOM     13  C   UNL     1      -1.418  -7.001  29.518  0.00  0.00    +0.110 C 
ENDBRANCH   1   8
BRANCH   6  14
ATOM     14  C   UNL     1      -3.570  -4.181  30.438  0.00  0.00    +0.340 C 
ATOM     15  O   UNL     1      -4.422  -4.155  29.525  0.00  0.00    -0.245 OA
BRANCH  14  16
ATOM     16  O   UNL     1      -4.047  -4.438  31.728  0.00  0.00    -0.477 OA
ATOM     17  H   UNL     1      -3.451  -4.469  32.450  0.00  0.00    +0.295 HD
ENDBRANCH  14  16
ENDBRANCH   6  14
BRANCH   2  18
ATOM     18  C   UNL     1       1.461  -5.324  30.655  0.00  0.00    +0.337 C 
ATOM     19  O   UNL     1       2.608  -4.757  30.539  0.00  0.00    -0.245 OA
BRANCH  18  20
ATOM     20  O   UNL     1       1.515  -6.617  31.075  0.00  0.00    -0.477 OA
ATOM     21  H   UNL     1       0.724  -7.107  31.187  0.00  0.00    +0.295 HD
ENDBRANCH  18  20
ENDBRANCH   2  18
TORSDOF 5
