REMARK  Name = =
REMARK  6 active torsions:
REMARK  status: ('A' for Active; 'I' for Inactive)
REMARK    1  A    between atoms: C_1  and  N_7
REMARK    2  A    between atoms: C_2  and  C_22
REMARK    3  A    between atoms: C_6  and  C_19
REMARK    4  A    between atoms: C_12  and  C_13
REMARK    5  A    between atoms: C_19  and  O_21
REMARK    6  A    between atoms: C_22  and  O_24
REMARK                            x       y       z     vdW  Elec       q    Type
REMARK                         _______ _______ _______ _____ _____    ______ ____
ROOT
ATOM      1  C   UNL     1       3.803  -2.042  23.623  0.00  0.00    +0.059 C 
ATOM      2  C   UNL     1       4.532  -3.302  23.368  0.00  0.00    +0.086 C 
ATOM      3  C   UNL     1       4.400  -4.418  24.065  0.00  0.00    +0.122 C 
ATOM      4  N   UNL     1       3.523  -4.491  25.170  0.00  0.00    -0.328 N 
ATOM      5  C   UNL     1       2.817  -3.301  25.471  0.00  0.00    +0.066 C 
ATOM      6  C   UNL     1       2.900  -2.167  24.825  0.00  0.00    +0.103 C 
ATOM      7  H   UNL     1       3.410  -5.315  25.696  0.00  0.00    +0.147 HD
ENDROOT
BRANCH   1   8
ATOM      8  N   UNL     1       2.979  -1.674  22.486  0.00  0.00    -0.301 N 
ATOM      9  C   UNL     1       3.046  -0.354  22.049  0.00  0.00    +0.110 C 
ATOM     10  C   UNL     1       1.882   0.168  21.273  0.00  0.00    +0.110 C 
ATOM     11  N   UNL     1       1.046  -0.859  20.690  0.00  0.00    -0.214 NA
ATOM     12  C   UNL     1       0.675  -1.746  21.813  0.00  0.00    +0.115 C 
ATOM     13  C   UNL     1       2.006  -2.534  22.021  0.00  0.00    +0.131 C 
BRANCH  13  14
ATOM     14  C   UNL     1       2.264  -3.093  20.646  0.00  0.00    +0.082 C 
ATOM     15  N   UNL     1       3.461  -2.987  20.069  0.00  0.00    -0.227 NA
ATOM     16  C   UNL     1       3.662  -3.503  18.821  0.00  0.00    +0.199 C 
ATOM     17  N   UNL     1       2.655  -4.131  18.145  0.00  0.00    -0.222 NA
ATOM     18  C   UNL     1       1.449  -4.250  18.698  0.00  0.00    +0.102 C 
ATOM     19  C   UNL     1       1.266  -3.723  19.958  0.00  0.00    +0.037 C 
ENDBRANCH  13  14
ENDBRANCH   1   8
BRANCH   6  20
ATOM     20  C   UNL     1       2.118  -1.019  25.325  0.00  0.00    +0.340 C 
ATOM     21  O   UNL     1       2.637  -0.249  26.201  0.00  0.00    -0.245 OA
BRANCH  20  22
ATOM     22  O   UNL     1       0.850  -0.697  24.916  0.00  0.00    -0.477 OA
ATOM     23  H   UNL     1       0.416  -1.225  24.275  0.00  0.00    +0.295 HD
ENDBRANCH  20  22
ENDBRANCH   6  20
BRANCH   2  24
ATOM     24  C   UNL     1       5.532  -3.386  22.316  0.00  0.00    +0.337 C 
ATOM     25  O   UNL     1       6.119  -4.457  22.112  0.00  0.00    -0.245 OA
BRANCH  24  26
ATOM     26  O   UNL     1       5.878  -2.310  21.504  0.00  0.00    -0.477 OA
ATOM     27  H   UNL     1       5.460  -1.480  21.623  0.00  0.00    +0.295 HD
ENDBRANCH  24  26
ENDBRANCH   2  24
TORSDOF 6
