REMARK  Name = =
REMARK  7 active torsions:
REMARK  status: ('A' for Active; 'I' for Inactive)
REMARK    1  A    between atoms: N_1  and  C_21
REMARK    2  A    between atoms: C_2  and  C_7
REMARK    3  A    between atoms: C_6  and  C_33
REMARK    4  A    between atoms: C_22  and  C_30
REMARK    5  A    between atoms: C_26  and  C_27
REMARK    6  A    between atoms: C_27  and  O_29
REMARK    7  A    between atoms: C_30  and  O_32
REMARK                            x       y       z     vdW  Elec       q    Type
REMARK                         _______ _______ _______ _____ _____    ______ ____
ROOT
ATOM      1  N   UNL     1       2.416  -2.529  21.126  0.00  0.00    -0.299 N 
ATOM      2  C   UNL     1       2.000  -2.996  19.867  0.00  0.00    +0.113 C 
ATOM      3  C   UNL     1       3.170  -3.430  18.970  0.00  0.00    +0.113 C 
ATOM      4  N   UNL     1       4.360  -3.841  19.552  0.00  0.00    -0.214 NA
ATOM      5  C   UNL     1       4.765  -3.014  20.667  0.00  0.00    +0.115 C 
ATOM      6  C   UNL     1       3.627  -3.042  21.682  0.00  0.00    +0.131 C 
ENDROOT
BRANCH   2   7
ATOM      7  C   UNL     1       1.113  -4.233  19.932  0.00  0.00    -0.003 C 
ATOM      8  C   UNL     1      -0.201  -4.189  20.289  0.00  0.00    -0.002 C 
ATOM      9  C   UNL     1      -0.985  -5.334  20.427  0.00  0.00    -0.000 C 
ATOM     10  C   UNL     1      -2.330  -5.227  20.742  0.00  0.00    -0.000 C 
ATOM     11  C   UNL     1      -2.927  -3.968  20.927  0.00  0.00    -0.000 C 
ATOM     12  C   UNL     1      -4.278  -3.880  21.227  0.00  0.00    -0.000 C 
ATOM     13  C   UNL     1      -5.030  -5.027  21.343  0.00  0.00    +0.000 C 
ATOM     14  C   UNL     1      -4.462  -6.269  21.166  0.00  0.00    -0.000 C 
ATOM     15  C   UNL     1      -3.095  -6.359  20.863  0.00  0.00    -0.000 C 
ATOM     16  C   UNL     1      -2.170  -2.837  20.792  0.00  0.00    -0.000 C 
ATOM     17  C   UNL     1      -0.839  -2.975  20.480  0.00  0.00    -0.000 C 
ATOM     18  C   UNL     1      -0.410  -6.554  20.192  0.00  0.00    -0.000 C 
ATOM     19  C   UNL     1       0.920  -6.614  19.826  0.00  0.00    -0.000 C 
ATOM     20  C   UNL     1       1.674  -5.481  19.696  0.00  0.00    -0.003 C 
ENDBRANCH   2   7
BRANCH   1  21
ATOM     21  C   UNL     1       2.120  -1.172  21.577  0.00  0.00    +0.060 C 
ATOM     22  C   UNL     1       2.662  -1.074  23.000  0.00  0.00    +0.086 C 
ATOM     23  C   UNL     1       3.554  -0.181  23.318  0.00  0.00    +0.122 C 
ATOM     24  N   UNL     1       4.108   0.794  22.440  0.00  0.00    -0.328 N 
ATOM     25  C   UNL     1       3.598   0.754  21.118  0.00  0.00    +0.066 C 
ATOM     26  C   UNL     1       2.689  -0.115  20.704  0.00  0.00    +0.103 C 
ATOM     27  H   UNL     1       4.790   1.443  22.728  0.00  0.00    +0.147 HD
BRANCH  26  28
ATOM     28  C   UNL     1       2.206   0.156  19.360  0.00  0.00    +0.340 C 
ATOM     29  O   UNL     1       2.938   0.808  18.524  0.00  0.00    -0.245 OA
BRANCH  28  30
ATOM     30  O   UNL     1       0.997  -0.201  18.811  0.00  0.00    -0.477 OA
ATOM     31  H   UNL     1       0.374  -0.681  19.321  0.00  0.00    +0.295 HD
ENDBRANCH  28  30
ENDBRANCH  26  28
BRANCH  22  32
ATOM     32  C   UNL     1       2.175  -1.924  24.081  0.00  0.00    +0.337 C 
ATOM     33  O   UNL     1       2.879  -2.101  25.108  0.00  0.00    -0.245 OA
BRANCH  32  34
ATOM     34  O   UNL     1       0.964  -2.535  24.000  0.00  0.00    -0.477 OA
ATOM     35  H   UNL     1       0.428  -2.413  23.241  0.00  0.00    +0.295 HD
ENDBRANCH  32  34
ENDBRANCH  22  32
ENDBRANCH   1  21
BRANCH   6  36
ATOM     36  C   UNL     1       3.582  -4.313  22.405  0.00  0.00    +0.082 C 
ATOM     37  N   UNL     1       2.452  -4.861  22.882  0.00  0.00    -0.227 NA
ATOM     38  C   UNL     1       2.391  -6.021  23.557  0.00  0.00    +0.199 C 
ATOM     39  N   UNL     1       3.536  -6.695  23.782  0.00  0.00    -0.222 NA
ATOM     40  C   UNL     1       4.717  -6.229  23.345  0.00  0.00    +0.102 C 
ATOM     41  C   UNL     1       4.731  -5.025  22.650  0.00  0.00    +0.037 C 
ENDBRANCH   6  36
TORSDOF 7
