MODEL 1
REMARK VINA RESULT:    -6.256      0.000      0.000
REMARK INTER + INTRA:         -10.984
REMARK INTER:                  -9.000
REMARK INTRA:                  -1.984
REMARK UNBOUND:                -1.984
REMARK  Name = =
REMARK  9 active torsions:
REMARK  status: ('A' for Active; 'I' for Inactive)
REMARK    1  A    between atoms: C_1  and  C_11
REMARK    2  A    between atoms: C_1  and  O_27
REMARK    3  A    between atoms: C_9  and  O_26
REMARK    4  A    between atoms: C_11  and  S_16
REMARK    5  A    between atoms: S_16  and  N_25
REMARK    6  A    between atoms: O_27  and  C_28
REMARK    7  A    between atoms: C_30  and  O_37
REMARK    8  A    between atoms: C_32  and  O_36
REMARK    9  A    between atoms: C_33  and  C_34
REMARK                            x       y       z     vdW  Elec       q    Type
REMARK                         _______ _______ _______ _____ _____    ______ ____
ROOT
ATOM      1  C   UNL     1      60.548 162.299  40.272  0.00  0.00    +0.163 C 
ATOM      2  C   UNL     1      59.901 163.567  40.843  0.00  0.00    +0.046 C 
ATOM      3  C   UNL     1      58.470 163.654  40.405  0.00  0.00    +0.009 C 
ATOM      4  C   UNL     1      57.696 162.768  41.348  0.00  0.00    +0.026 C 
ATOM      5  C   UNL     1      58.391 161.431  41.270  0.00  0.00    -0.020 C 
ATOM      6  C   UNL     1      59.659 161.202  40.788  0.00  0.00    +0.011 C 
ATOM      7  C   UNL     1      60.116 159.886  40.834  0.00  0.00    +0.002 C 
ATOM      8  C   UNL     1      59.382 158.836  41.323  0.00  0.00    +0.036 C 
ATOM      9  C   UNL     1      58.117 159.080  41.800  0.00  0.00    +0.133 C 
ATOM     10  C   UNL     1      57.647 160.367  41.764  0.00  0.00    +0.032 C 
ENDROOT
BRANCH   1  11
ATOM     11  C   UNL     1      61.948 162.159  40.899  0.00  0.00    +0.122 C 
ATOM     12  C   UNL     1      62.846 161.300  40.095  0.00  0.00    +0.018 C 
ATOM     13  C   UNL     1      63.177 160.104  40.905  0.00  0.00    +0.001 C 
ATOM     14  C   UNL     1      63.162 160.642  42.316  0.00  0.00    +0.001 C 
ATOM     15  C   UNL     1      61.959 161.571  42.259  0.00  0.00    +0.018 C 
BRANCH  11  16
ATOM     16  S   UNL     1      62.727 163.787  41.046  0.00  0.00    +0.125 S 
ATOM     17  O   UNL     1      64.033 163.678  41.816  0.00  0.00    -0.236 OA
BRANCH  16  25
ATOM     18  N   UNL     1      62.630 166.495  38.008  0.00  0.00    -0.213 N 
ATOM     19  C   UNL     1      62.274 167.776  37.460  0.00  0.00    +0.112 C 
ATOM     20  C   UNL     1      63.495 167.620  36.570  0.00  0.00    +0.108 C 
ATOM     21  C   UNL     1      63.207 166.155  36.763  0.00  0.00    +0.234 C 
ATOM     22  O   UNL     1      63.378 165.096  36.146  0.00  0.00    -0.274 OA
ATOM     23  C   UNL     1      62.489 165.822  39.236  0.00  0.00    +0.320 C 
ATOM     24  O   UNL     1      61.908 166.417  40.179  0.00  0.00    -0.251 OA
ATOM     25  N   UNL     1      62.959 164.517  39.484  0.00  0.00    -0.218 N 
ATOM     26  H   UNL     1      63.419 164.018  38.772  0.00  0.00    +0.167 HD
ENDBRANCH  16  25
ENDBRANCH  11  16
ENDBRANCH   1  11
BRANCH   9  27
ATOM     27  O   UNL     1      57.318 158.050  42.312  0.00  0.00    -0.506 OA
ATOM     28  H   UNL     1      56.392 158.172  42.393  0.00  0.00    +0.292 HD
ENDBRANCH   9  27
BRANCH   1  29
ATOM     29  O   UNL     1      60.689 162.347  38.944  0.00  0.00    -0.477 OA
BRANCH  29  30
ATOM     30  C   UNL     1      60.106 162.629  37.774  0.00  0.00    +0.148 C 
ATOM     31  C   UNL     1      60.252 163.937  37.260  0.00  0.00    +0.074 C 
ATOM     32  C   UNL     1      59.690 164.294  36.092  0.00  0.00    +0.140 C 
ATOM     33  C   UNL     1      58.945 163.423  35.326  0.00  0.00    +0.073 C 
ATOM     34  C   UNL     1      58.810 162.156  35.832  0.00  0.00    +0.143 C 
ATOM     35  C   UNL     1      59.380 161.747  37.043  0.00  0.00    +0.110 C 
BRANCH  35  36
ATOM     36  C   UNL     1      59.195 160.341  37.419  0.00  0.00    +0.240 C 
ATOM     37  O   UNL     1      58.075 159.930  37.835  0.00  0.00    -0.283 OA
ENDBRANCH  35  36
BRANCH  34  38
ATOM     38  O   UNL     1      58.065 161.245  35.089  0.00  0.00    -0.505 OA
ATOM     39  H   UNL     1      58.281 161.083  34.192  0.00  0.00    +0.292 HD
ENDBRANCH  34  38
BRANCH  32  40
ATOM     40  O   UNL     1      59.882 165.616  35.648  0.00  0.00    -0.505 OA
ATOM     41  H   UNL     1      60.750 165.960  35.558  0.00  0.00    +0.292 HD
ENDBRANCH  32  40
ENDBRANCH  29  30
ENDBRANCH   1  29
TORSDOF 9
ENDMDL
