REMARK  Name = =
REMARK  9 active torsions:
REMARK  status: ('A' for Active; 'I' for Inactive)
REMARK    1  A    between atoms: C_1  and  C_11
REMARK    2  A    between atoms: C_1  and  O_27
REMARK    3  A    between atoms: C_9  and  O_26
REMARK    4  A    between atoms: C_11  and  S_16
REMARK    5  A    between atoms: S_16  and  N_25
REMARK    6  A    between atoms: O_27  and  C_28
REMARK    7  A    between atoms: C_30  and  O_37
REMARK    8  A    between atoms: C_32  and  O_36
REMARK    9  A    between atoms: C_33  and  C_34
REMARK                            x       y       z     vdW  Elec       q    Type
REMARK                         _______ _______ _______ _____ _____    ______ ____
ROOT
ATOM      1  C   UNL     1      51.476 160.721  30.478  0.00  0.00    +0.163 C 
ATOM      2  C   UNL     1      50.789 161.236  29.206  0.00  0.00    +0.046 C 
ATOM      3  C   UNL     1      49.497 160.507  28.990  0.00  0.00    +0.009 C 
ATOM      4  C   UNL     1      48.487 161.188  29.878  0.00  0.00    +0.026 C 
ATOM      5  C   UNL     1      49.107 161.158  31.253  0.00  0.00    -0.020 C 
ATOM      6  C   UNL     1      50.436 160.945  31.540  0.00  0.00    +0.011 C 
ATOM      7  C   UNL     1      50.798 160.986  32.885  0.00  0.00    +0.002 C 
ATOM      8  C   UNL     1      49.918 161.221  33.910  0.00  0.00    +0.036 C 
ATOM      9  C   UNL     1      48.594 161.431  33.608  0.00  0.00    +0.133 C 
ATOM     10  C   UNL     1      48.215 161.395  32.291  0.00  0.00    +0.032 C 
ENDROOT
BRANCH   1  11
ATOM     11  C   UNL     1      52.693 161.623  30.756  0.00  0.00    +0.122 C 
ATOM     12  C   UNL     1      52.605 162.306  32.066  0.00  0.00    +0.018 C 
ATOM     13  C   UNL     1      52.516 163.764  31.814  0.00  0.00    +0.001 C 
ATOM     14  C   UNL     1      53.327 163.934  30.551  0.00  0.00    +0.001 C 
ATOM     15  C   UNL     1      52.898 162.705  29.764  0.00  0.00    +0.018 C 
BRANCH  11  16
ATOM     16  S   UNL     1      54.211 160.637  30.748  0.00  0.00    +0.125 S 
ATOM     17  O   UNL     1      54.944 160.810  29.428  0.00  0.00    -0.236 OA
BRANCH  16  25
ATOM     18  N   UNL     1      57.221 162.251  32.965  0.00  0.00    -0.213 N 
ATOM     19  C   UNL     1      58.402 163.059  33.104  0.00  0.00    +0.112 C 
ATOM     20  C   UNL     1      57.937 163.311  34.528  0.00  0.00    +0.108 C 
ATOM     21  C   UNL     1      57.288 161.964  34.347  0.00  0.00    +0.234 C 
ATOM     22  O   UNL     1      56.946 161.007  35.053  0.00  0.00    -0.274 OA
ATOM     23  C   UNL     1      56.344 161.874  31.931  0.00  0.00    +0.320 C 
ATOM     24  O   UNL     1      56.564 162.311  30.772  0.00  0.00    -0.251 OA
ATOM     25  N   UNL     1      55.226 161.034  32.105  0.00  0.00    -0.218 N 
ATOM     26  H   UNL     1      55.019 160.671  32.996  0.00  0.00    +0.167 HD
ENDBRANCH  16  25
ENDBRANCH  11  16
ENDBRANCH   1  11
BRANCH   9  27
ATOM     27  O   UNL     1      47.646 161.676  34.609  0.00  0.00    -0.506 OA
ATOM     28  H   UNL     1      47.909 161.700  35.508  0.00  0.00    +0.292 HD
ENDBRANCH   9  27
BRANCH   1  29
ATOM     29  O   UNL     1      51.909 159.463  30.355  0.00  0.00    -0.477 OA
BRANCH  29  30
ATOM     30  C   UNL     1      51.697 158.264  29.802  0.00  0.00    +0.148 C 
ATOM     31  C   UNL     1      52.742 157.690  29.043  0.00  0.00    +0.074 C 
ATOM     32  C   UNL     1      52.599 156.490  28.455  0.00  0.00    +0.140 C 
ATOM     33  C   UNL     1      51.442 155.746  28.550  0.00  0.00    +0.073 C 
ATOM     34  C   UNL     1      50.435 156.310  29.290  0.00  0.00    +0.143 C 
ATOM     35  C   UNL     1      50.546 157.556  29.917  0.00  0.00    +0.110 C 
BRANCH  35  36
ATOM     36  C   UNL     1      49.401 157.995  30.722  0.00  0.00    +0.240 C 
ATOM     37  O   UNL     1      48.290 157.398  30.638  0.00  0.00    -0.283 OA
ENDBRANCH  35  36
BRANCH  34  38
ATOM     38  O   UNL     1      49.249 155.591  29.411  0.00  0.00    -0.505 OA
ATOM     39  H   UNL     1      49.163 154.756  28.996  0.00  0.00    +0.292 HD
ENDBRANCH  34  38
BRANCH  32  40
ATOM     40  O   UNL     1      53.687 155.987  27.716  0.00  0.00    -0.505 OA
ATOM     41  H   UNL     1      53.621 155.153  27.293  0.00  0.00    +0.292 HD
ENDBRANCH  32  40
ENDBRANCH  29  30
ENDBRANCH   1  29
TORSDOF 9
