REMARK  Name = =
REMARK  4 active torsions:
REMARK  status: ('A' for Active; 'I' for Inactive)
REMARK    1  A    between atoms: C_1  and  C_18
REMARK    2  A    between atoms: C_1  and  C_19
REMARK    3  A    between atoms: C_19  and  C_25
REMARK    4  A    between atoms: C_32  and  C_35
REMARK                            x       y       z     vdW  Elec       q    Type
REMARK                         _______ _______ _______ _____ _____    ______ ____
ROOT
ATOM      1  C   UNL     1     -11.684   3.193  20.121  0.00  0.00    +0.015 C 
ATOM      2  C   UNL     1     -11.092   4.064  19.062  0.00  0.00    +0.005 C 
ATOM      3  C   UNL     1     -11.866   4.177  17.802  0.00  0.00    +0.018 C 
ATOM      4  C   UNL     1     -12.040   2.906  17.050  0.00  0.00    +0.004 C 
ATOM      5  C   UNL     1     -12.193   1.782  18.039  0.00  0.00    +0.000 C 
ATOM      6  C   UNL     1     -12.646   2.266  19.367  0.00  0.00    +0.001 C 
ATOM      7  C   UNL     1     -11.288   5.226  16.941  0.00  0.00    -0.045 C 
ATOM      8  C   UNL     1     -12.050   6.169  16.454  0.00  0.00    -0.009 C 
ATOM      9  C   UNL     1      -9.845   5.181  16.652  0.00  0.00    +0.022 C 
ATOM     10  C   UNL     1      -9.092   4.255  17.566  0.00  0.00    +0.004 C 
ATOM     11  C   UNL     1      -9.665   4.316  18.999  0.00  0.00    +0.001 C 
ENDROOT
BRANCH   1  18
ATOM     12  C   UNL     1     -11.124   1.232  21.730  0.00  0.00    +0.032 C 
ATOM     13  C   UNL     1      -9.675   0.797  21.422  0.00  0.00    +0.059 C 
ATOM     14  N   UNL     1      -9.816   1.514  20.180  0.00  0.00    -0.275 NA
ATOM     15  C   UNL     1      -8.952   0.833  19.280  0.00  0.00    +0.072 C 
ATOM     16  C   UNL     1      -8.806  -0.408  19.670  0.00  0.00    +0.019 C 
ATOM     17  C   UNL     1      -9.598  -0.650  20.915  0.00  0.00    +0.017 C 
ATOM     18  C   UNL     1     -10.764   2.380  20.909  0.00  0.00    +0.059 C 
ENDBRANCH   1  18
BRANCH   1  19
ATOM     19  C   UNL     1     -12.598   4.115  20.946  0.00  0.00    +0.013 C 
ATOM     20  C   UNL     1     -11.912   4.154  22.352  0.00  0.00    +0.009 C 
ATOM     21  C   UNL     1     -12.408   5.412  23.008  0.00  0.00    +0.065 C 
ATOM     22  C   UNL     1     -12.727   6.272  21.866  0.00  0.00    +0.151 C 
ATOM     23  O   UNL     1     -13.258   7.357  21.918  0.00  0.00    -0.296 OA
ATOM     24  C   UNL     1     -12.275   5.562  20.660  0.00  0.00    +0.065 C 
BRANCH  19  25
ATOM     25  C   UNL     1     -14.023   3.850  21.051  0.00  0.00    +0.029 C 
ATOM     26  C   UNL     1     -14.583   3.343  22.352  0.00  0.00    +0.052 C 
ATOM     27  C   UNL     1     -15.815   4.038  22.872  0.00  0.00    +0.206 C 
ATOM     28  O   UNL     1     -15.841   5.397  22.470  0.00  0.00    -0.476 OA
ATOM     29  C   UNL     1     -15.862   5.560  21.062  0.00  0.00    +0.135 C 
ATOM     30  C   UNL     1     -14.975   4.772  20.329  0.00  0.00    +0.012 C 
ATOM     31  C   UNL     1     -15.003   4.914  18.969  0.00  0.00    +0.009 C 
ATOM     32  C   UNL     1     -15.862   5.800  18.330  0.00  0.00    +0.068 C 
ATOM     33  C   UNL     1     -16.729   6.576  19.042  0.00  0.00    +0.013 C 
ATOM     34  C   UNL     1     -16.708   6.435  20.414  0.00  0.00    +0.037 C 
BRANCH  32  35
ATOM     35  C   UNL     1     -15.870   5.929  16.900  0.00  0.00    +0.100 C 
ATOM     36  N   UNL     1     -15.889   6.046  15.741  0.00  0.00    -0.191 NA
ENDBRANCH  32  35
ENDBRANCH  19  25
ENDBRANCH   1  19
TORSDOF 4
