MODEL 1
REMARK VINA RESULT:    -5.741      0.000      0.000
REMARK INTER + INTRA:         -11.107
REMARK INTER:                  -9.097
REMARK INTRA:                  -2.010
REMARK UNBOUND:                -2.010
REMARK  Name = =
REMARK  13 active torsions:
REMARK  status: ('A' for Active; 'I' for Inactive)
REMARK    1  A    between atoms: C_1  and  S_22
REMARK    2  A    between atoms: C_11  and  C_18
REMARK    3  A    between atoms: C_19  and  C_20
REMARK    4  A    between atoms: S_22  and  O_23
REMARK    5  A    between atoms: O_23  and  P_24
REMARK    6  A    between atoms: P_24  and  O_26
REMARK    7  A    between atoms: P_24  and  O_31
REMARK    8  A    between atoms: O_26  and  P_27
REMARK    9  A    between atoms: P_27  and  O_29
REMARK   10  A    between atoms: P_27  and  O_30
REMARK   11  A    between atoms: O_31  and  P_32
REMARK   12  A    between atoms: P_32  and  O_34
REMARK   13  A    between atoms: P_32  and  O_35
REMARK                            x       y       z     vdW  Elec       q    Type
REMARK                         _______ _______ _______ _____ _____    ______ ____
ROOT
ATOM      1  C   UNL     1      61.342 164.529  40.889  0.00  0.00    +0.065 C 
ATOM      2  C   UNL     1      61.912 163.519  39.860  0.00  0.00    +0.011 C 
ATOM      3  C   UNL     1      63.417 163.450  39.890  0.00  0.00    +0.001 C 
ATOM      4  C   UNL     1      63.973 163.394  41.287  0.00  0.00    +0.000 C 
ATOM      5  C   UNL     1      63.433 164.481  42.163  0.00  0.00    +0.001 C 
ATOM      6  C   UNL     1      62.528 165.356  41.350  0.00  0.00    +0.012 C 
ATOM      7  C   UNL     1      61.303 163.436  38.591  0.00  0.00    +0.002 C 
ATOM      8  C   UNL     1      59.837 163.365  38.699  0.00  0.00    +0.000 C 
ATOM      9  C   UNL     1      59.176 163.198  37.425  0.00  0.00    +0.001 C 
ATOM     10  C   UNL     1      59.662 163.972  36.333  0.00  0.00    +0.012 C 
ATOM     11  C   UNL     1      61.278 164.611  36.476  0.00  0.00    +0.065 C 
ATOM     12  C   UNL     1      61.819 164.042  37.373  0.00  0.00    +0.013 C 
ATOM     13  C   UNL     1      59.164 163.368  35.171  0.00  0.00    +0.001 C 
ATOM     14  C   UNL     1      58.723 161.904  35.535  0.00  0.00    +0.000 C 
ATOM     15  C   UNL     1      59.234 161.736  36.942  0.00  0.00    +0.000 C 
ATOM     16  C   UNL     1      59.218 164.469  39.621  0.00  0.00    +0.001 C 
ATOM     17  C   UNL     1      60.265 165.347  40.212  0.00  0.00    +0.012 C 
ENDROOT
BRANCH  11  18
ATOM     18  C   UNL     1      60.834 165.620  35.736  0.00  0.00    -0.079 C 
ATOM     19  C   UNL     1      60.468 166.476  35.131  0.00  0.00    -0.013 C 
BRANCH  19  20
ATOM     20  C   UNL     1      59.815 167.946  34.077  0.00  0.00    -0.001 C 
ATOM     21  C   UNL     1      59.540 168.540  33.653  0.00  0.00    -0.000 C 
ENDBRANCH  19  20
ENDBRANCH  11  18
BRANCH   1  22
ATOM     22  S   UNL     1      60.534 163.699  42.264  0.00  0.00    +0.013 S 
BRANCH  22  23
ATOM     23  O   UNL     1      59.704 162.307  41.786  0.00  0.00    -0.214 OA
BRANCH  23  24
ATOM     24  P   UNL     1      60.517 160.860  41.761  0.00  0.00    +0.505 P 
ATOM     25  O   UNL     1      60.748 160.200  40.435  0.00  0.00    -0.225 OA
BRANCH  24  26
ATOM     26  O   UNL     1      59.582 159.742  42.641  0.00  0.00    -0.185 OA
BRANCH  26  27
ATOM     27  P   UNL     1      58.612 158.834  41.618  0.00  0.00    +0.481 P 
ATOM     28  O   UNL     1      57.482 158.163  42.329  0.00  0.00    -0.227 OA
BRANCH  27  29
ATOM     29  O   UNL     1      57.973 159.825  40.417  0.00  0.00    -0.302 OA
ATOM     30  H   UNL     1      57.777 159.293  39.629  0.00  0.00    +0.222 HD
ENDBRANCH  27  29
BRANCH  27  31
ATOM     31  O   UNL     1      59.574 157.659  40.915  0.00  0.00    -0.302 OA
ATOM     32  H   UNL     1      59.846 157.019  41.590  0.00  0.00    +0.222 HD
ENDBRANCH  27  31
ENDBRANCH  26  27
ENDBRANCH  24  26
BRANCH  24  33
ATOM     33  O   UNL     1      62.045 160.995  42.486  0.00  0.00    -0.185 OA
BRANCH  33  34
ATOM     34  P   UNL     1      63.058 159.709  42.073  0.00  0.00    +0.481 P 
ATOM     35  O   UNL     1      64.211 159.546  43.034  0.00  0.00    -0.227 OA
BRANCH  34  36
ATOM     36  O   UNL     1      63.619 160.019  40.509  0.00  0.00    -0.302 OA
ATOM     37  H   UNL     1      63.110 159.494  39.873  0.00  0.00    +0.222 HD
ENDBRANCH  34  36
BRANCH  34  38
ATOM     38  O   UNL     1      62.199 158.248  42.006  0.00  0.00    -0.302 OA
ATOM     39  H   UNL     1      61.327 158.367  42.412  0.00  0.00    +0.222 HD
ENDBRANCH  34  38
ENDBRANCH  33  34
ENDBRANCH  24  33
ENDBRANCH  23  24
ENDBRANCH  22  23
ENDBRANCH   1  22
TORSDOF 13
ENDMDL
