REMARK  Name = =
REMARK  13 active torsions:
REMARK  status: ('A' for Active; 'I' for Inactive)
REMARK    1  A    between atoms: C_1  and  S_22
REMARK    2  A    between atoms: C_11  and  C_18
REMARK    3  A    between atoms: C_19  and  C_20
REMARK    4  A    between atoms: S_22  and  O_23
REMARK    5  A    between atoms: O_23  and  P_24
REMARK    6  A    between atoms: P_24  and  O_26
REMARK    7  A    between atoms: P_24  and  O_31
REMARK    8  A    between atoms: O_26  and  P_27
REMARK    9  A    between atoms: P_27  and  O_29
REMARK   10  A    between atoms: P_27  and  O_30
REMARK   11  A    between atoms: O_31  and  P_32
REMARK   12  A    between atoms: P_32  and  O_34
REMARK   13  A    between atoms: P_32  and  O_35
REMARK                            x       y       z     vdW  Elec       q    Type
REMARK                         _______ _______ _______ _____ _____    ______ ____
ROOT
ATOM      1  C   UNL     1      51.871 156.141  27.660  0.00  0.00    +0.065 C 
ATOM      2  C   UNL     1      52.848 155.056  28.183  0.00  0.00    +0.011 C 
ATOM      3  C   UNL     1      53.908 155.623  29.092  0.00  0.00    +0.001 C 
ATOM      4  C   UNL     1      53.357 156.594  30.100  0.00  0.00    +0.000 C 
ATOM      5  C   UNL     1      52.516 157.659  29.470  0.00  0.00    +0.001 C 
ATOM      6  C   UNL     1      52.526 157.471  27.983  0.00  0.00    +0.012 C 
ATOM      7  C   UNL     1      53.255 154.036  27.299  0.00  0.00    +0.002 C 
ATOM      8  C   UNL     1      52.112 153.462  26.572  0.00  0.00    +0.000 C 
ATOM      9  C   UNL     1      52.474 152.358  25.714  0.00  0.00    +0.001 C 
ATOM     10  C   UNL     1      53.667 152.493  24.948  0.00  0.00    +0.012 C 
ATOM     11  C   UNL     1      54.824 153.678  25.492  0.00  0.00    +0.065 C 
ATOM     12  C   UNL     1      54.533 153.990  26.605  0.00  0.00    +0.013 C 
ATOM     13  C   UNL     1      54.014 151.201  24.531  0.00  0.00    +0.001 C 
ATOM     14  C   UNL     1      53.256 150.174  25.448  0.00  0.00    +0.000 C 
ATOM     15  C   UNL     1      52.651 151.051  26.512  0.00  0.00    +0.000 C 
ATOM     16  C   UNL     1      51.184 154.534  25.907  0.00  0.00    +0.001 C 
ATOM     17  C   UNL     1      51.657 155.919  26.179  0.00  0.00    +0.012 C 
ENDROOT
BRANCH  11  18
ATOM     18  C   UNL     1      55.136 153.812  24.208  0.00  0.00    -0.079 C 
ATOM     19  C   UNL     1      55.414 153.927  23.139  0.00  0.00    -0.013 C 
BRANCH  19  20
ATOM     20  C   UNL     1      55.877 154.138  21.285  0.00  0.00    -0.001 C 
ATOM     21  C   UNL     1      56.065 154.212  20.532  0.00  0.00    -0.000 C 
ENDBRANCH  19  20
ENDBRANCH  11  18
BRANCH   1  22
ATOM     22  S   UNL     1      50.246 155.997  28.415  0.00  0.00    +0.013 S 
BRANCH  22  23
ATOM     23  O   UNL     1      50.144 156.799  29.899  0.00  0.00    -0.214 OA
BRANCH  23  24
ATOM     24  P   UNL     1      49.800 158.423  29.908  0.00  0.00    +0.505 P 
ATOM     25  O   UNL     1      50.340 159.268  28.794  0.00  0.00    -0.225 OA
BRANCH  24  26
ATOM     26  O   UNL     1      50.496 159.076  31.318  0.00  0.00    -0.185 OA
BRANCH  26  27
ATOM     27  P   UNL     1      51.090 160.618  31.036  0.00  0.00    +0.481 P 
ATOM     28  O   UNL     1      52.464 160.616  30.449  0.00  0.00    -0.227 OA
BRANCH  27  29
ATOM     29  O   UNL     1      50.062 161.437  29.984  0.00  0.00    -0.302 OA
ATOM     30  H   UNL     1      49.164 161.447  30.352  0.00  0.00    +0.222 HD
ENDBRANCH  27  29
BRANCH  27  31
ATOM     31  O   UNL     1      51.138 161.421  32.503  0.00  0.00    -0.302 OA
ATOM     32  H   UNL     1      51.730 160.950  33.110  0.00  0.00    +0.222 HD
ENDBRANCH  27  31
ENDBRANCH  26  27
ENDBRANCH  24  26
BRANCH  24  33
ATOM     33  O   UNL     1      48.127 158.703  29.936  0.00  0.00    -0.185 OA
BRANCH  33  34
ATOM     34  P   UNL     1      47.618 159.354  31.408  0.00  0.00    +0.481 P 
ATOM     35  O   UNL     1      48.334 158.746  32.590  0.00  0.00    -0.227 OA
BRANCH  34  36
ATOM     36  O   UNL     1      45.953 159.078  31.508  0.00  0.00    -0.302 OA
ATOM     37  H   UNL     1      45.513 159.476  30.741  0.00  0.00    +0.222 HD
ENDBRANCH  34  36
BRANCH  34  38
ATOM     38  O   UNL     1      47.840 161.035  31.446  0.00  0.00    -0.302 OA
ATOM     39  H   UNL     1      47.384 161.438  30.691  0.00  0.00    +0.222 HD
ENDBRANCH  34  38
ENDBRANCH  33  34
ENDBRANCH  24  33
ENDBRANCH  23  24
ENDBRANCH  22  23
ENDBRANCH   1  22
TORSDOF 13
