REMARK  Name = =
REMARK  3 active torsions:
REMARK  status: ('A' for Active; 'I' for Inactive)
REMARK    1  A    between atoms: O_1  and  N_2
REMARK    2  A    between atoms: O_1  and  C_5
REMARK    3  A    between atoms: C_5  and  O_7
REMARK                            x       y       z     vdW  Elec       q    Type
REMARK                         _______ _______ _______ _____ _____    ______ ____
ROOT
ATOM      1  O   UNL     1      -3.457  -4.358  31.827  0.00  0.00    -0.314 OA
ENDROOT
BRANCH   1   2
ATOM      2  N   UNL     1      -3.553  -5.386  30.912  0.00  0.00    -0.134 N 
ATOM      3  C   UNL     1      -2.690  -6.510  31.040  0.00  0.00    +0.333 C 
ATOM      4  O   UNL     1      -1.850  -6.566  31.976  0.00  0.00    -0.262 OA
ATOM      5  H   UNL     1      -4.210  -5.342  30.180  0.00  0.00    +0.196 HD
ENDBRANCH   1   2
BRANCH   1   6
ATOM      6  C   UNL     1      -3.641  -3.029  31.470  0.00  0.00    +0.531 C 
ATOM      7  O   UNL     1      -2.978  -2.533  30.523  0.00  0.00    -0.201 OA
BRANCH   6   8
ATOM      8  O   UNL     1      -4.542  -2.203  32.125  0.00  0.00    -0.448 OA
ATOM      9  H   UNL     1      -4.640  -1.311  31.857  0.00  0.00    +0.299 HD
ENDBRANCH   6   8
ENDBRANCH   1   6
TORSDOF 3
