REMARK  Name = =
REMARK  4 active torsions:
REMARK  status: ('A' for Active; 'I' for Inactive)
REMARK    1  A    between atoms: C_1  and  N_8
REMARK    2  A    between atoms: N_8  and  O_11
REMARK    3  A    between atoms: O_11  and  C_12
REMARK    4  A    between atoms: C_12  and  O_14
REMARK                            x       y       z     vdW  Elec       q    Type
REMARK                         _______ _______ _______ _____ _____    ______ ____
ROOT
ATOM      1  C   UNL     1       2.099  -4.675  34.858  0.00  0.00    +0.268 C 
ATOM      2  N   UNL     1       3.223  -3.999  35.465  0.00  0.00    -0.264 N 
ATOM      3  C   UNL     1       4.102  -3.683  34.384  0.00  0.00    +0.308 C 
ATOM      4  O   UNL     1       4.968  -2.767  34.339  0.00  0.00    -0.252 OA
ATOM      5  N   UNL     1       3.824  -4.614  33.327  0.00  0.00    -0.237 N 
ATOM      6  C   UNL     1       2.786  -5.474  33.784  0.00  0.00    +0.270 C 
ATOM      7  O   UNL     1       2.497  -6.638  33.388  0.00  0.00    -0.271 OA
ATOM      8  H   UNL     1       3.355  -3.799  36.420  0.00  0.00    +0.153 HD
ATOM      9  H   UNL     1       4.269  -4.651  32.449  0.00  0.00    +0.159 HD
ENDROOT
BRANCH   1  10
ATOM     10  N   UNL     1       1.413  -5.553  35.761  0.00  0.00    -0.083 N 
ATOM     11  C   UNL     1       1.634  -5.566  37.159  0.00  0.00    +0.339 C 
ATOM     12  O   UNL     1       1.014  -6.348  37.917  0.00  0.00    -0.262 OA
BRANCH  10  13
ATOM     13  O   UNL     1       0.494  -6.422  35.221  0.00  0.00    -0.308 OA
BRANCH  13  14
ATOM     14  C   UNL     1      -0.828  -6.059  35.198  0.00  0.00    +0.531 C 
ATOM     15  O   UNL     1      -1.346  -5.409  36.120  0.00  0.00    -0.201 OA
BRANCH  14  16
ATOM     16  O   UNL     1      -1.632  -6.423  34.116  0.00  0.00    -0.448 OA
ATOM     17  H   UNL     1      -2.536  -6.175  34.099  0.00  0.00    +0.299 HD
ENDBRANCH  14  16
ENDBRANCH  13  14
ENDBRANCH  10  13
ENDBRANCH   1  10
TORSDOF 4
