REMARK  Name = =
REMARK  5 active torsions:
REMARK  status: ('A' for Active; 'I' for Inactive)
REMARK    1  A    between atoms: N_1  and  C_14
REMARK    2  A    between atoms: N_1  and  O_21
REMARK    3  A    between atoms: C_2  and  C_4
REMARK    4  A    between atoms: O_21  and  C_22
REMARK    5  A    between atoms: C_22  and  O_24
REMARK                            x       y       z     vdW  Elec       q    Type
REMARK                         _______ _______ _______ _____ _____    ______ ____
ROOT
ATOM      1  N   UNL     1       1.809  -5.294  33.672  0.00  0.00    -0.086 N 
ATOM      2  C   UNL     1       1.186  -6.573  33.768  0.00  0.00    +0.282 C 
ATOM      3  O   UNL     1       1.616  -7.362  34.679  0.00  0.00    -0.267 OA
ENDROOT
BRANCH   2   4
ATOM      4  C   UNL     1       0.113  -7.062  32.941  0.00  0.00    +0.058 C 
ATOM      5  C   UNL     1      -1.184  -6.607  32.928  0.00  0.00    +0.019 C 
ATOM      6  C   UNL     1      -2.137  -7.101  32.058  0.00  0.00    +0.041 C 
ATOM      7  C   UNL     1      -1.817  -8.089  31.152  0.00  0.00    -0.009 C 
ATOM      8  C   UNL     1      -0.527  -8.577  31.133  0.00  0.00    -0.003 C 
ATOM      9  C   UNL     1       0.389  -8.059  32.014  0.00  0.00    +0.004 C 
ATOM     10  C   UNL     1      -2.827  -8.592  30.228  0.00  0.00    +0.029 C 
ATOM     11  C   UNL     1      -4.244  -8.484  30.657  0.00  0.00    +0.026 C 
ATOM     12  C   UNL     1      -4.558  -7.582  31.789  0.00  0.00    +0.087 C 
ATOM     13  N   UNL     1      -3.482  -6.649  32.052  0.00  0.00    -0.333 N 
ATOM     14  H   UNL     1      -3.684  -5.701  32.227  0.00  0.00    +0.147 HD
ENDBRANCH   2   4
BRANCH   1  15
ATOM     15  C   UNL     1       2.798  -4.901  34.644  0.00  0.00    +0.267 C 
ATOM     16  N   UNL     1       2.588  -3.523  35.072  0.00  0.00    -0.264 N 
ATOM     17  C   UNL     1       3.834  -3.015  35.490  0.00  0.00    +0.308 C 
ATOM     18  O   UNL     1       4.092  -2.015  36.245  0.00  0.00    -0.252 OA
ATOM     19  N   UNL     1       4.849  -3.843  34.906  0.00  0.00    -0.237 N 
ATOM     20  C   UNL     1       4.166  -4.860  34.128  0.00  0.00    +0.270 C 
ATOM     21  O   UNL     1       4.786  -5.474  33.235  0.00  0.00    -0.271 OA
ATOM     22  H   UNL     1       1.732  -3.037  35.069  0.00  0.00    +0.153 HD
ATOM     23  H   UNL     1       5.822  -3.741  35.012  0.00  0.00    +0.159 HD
ENDBRANCH   1  15
BRANCH   1  24
ATOM     24  O   UNL     1       1.539  -4.461  32.637  0.00  0.00    -0.308 OA
BRANCH  24  25
ATOM     25  C   UNL     1       1.868  -4.847  31.310  0.00  0.00    +0.531 C 
ATOM     26  O   UNL     1       2.729  -5.727  31.181  0.00  0.00    -0.201 OA
BRANCH  25  27
ATOM     27  O   UNL     1       1.268  -4.277  30.203  0.00  0.00    -0.448 OA
ATOM     28  H   UNL     1       1.511  -4.557  29.342  0.00  0.00    +0.299 HD
ENDBRANCH  25  27
ENDBRANCH  24  25
ENDBRANCH   1  24
TORSDOF 5
