REMARK  Name = =
REMARK  7 active torsions:
REMARK  status: ('A' for Active; 'I' for Inactive)
REMARK    1  A    between atoms: N_1  and  C_16
REMARK    2  A    between atoms: N_1  and  O_23
REMARK    3  A    between atoms: C_2  and  C_4
REMARK    4  A    between atoms: C_8  and  C_14
REMARK    5  A    between atoms: C_14  and  N_15
REMARK    6  A    between atoms: O_23  and  C_24
REMARK    7  A    between atoms: C_24  and  O_26
REMARK                            x       y       z     vdW  Elec       q    Type
REMARK                         _______ _______ _______ _____ _____    ______ ____
ROOT
ATOM      1  N   UNL     1       0.179  -6.708  31.842  0.00  0.00    -0.086 N 
ATOM      2  C   UNL     1       0.161  -6.534  33.221  0.00  0.00    +0.282 C 
ATOM      3  O   UNL     1      -0.812  -7.034  33.865  0.00  0.00    -0.267 OA
ENDROOT
BRANCH   2   4
ATOM      4  C   UNL     1       1.170  -5.820  33.992  0.00  0.00    +0.057 C 
ATOM      5  C   UNL     1       2.164  -5.036  33.463  0.00  0.00    +0.019 C 
ATOM      6  C   UNL     1       3.082  -4.382  34.295  0.00  0.00    +0.040 C 
ATOM      7  C   UNL     1       3.030  -4.491  35.666  0.00  0.00    -0.012 C 
ATOM      8  C   UNL     1       2.049  -5.263  36.202  0.00  0.00    -0.009 C 
ATOM      9  C   UNL     1       1.144  -5.909  35.389  0.00  0.00    +0.001 C 
ATOM     10  C   UNL     1       4.014  -3.790  36.485  0.00  0.00    +0.029 C 
ATOM     11  C   UNL     1       5.323  -3.826  35.675  0.00  0.00    +0.026 C 
ATOM     12  C   UNL     1       5.150  -3.004  34.438  0.00  0.00    +0.087 C 
ATOM     13  N   UNL     1       4.092  -3.598  33.642  0.00  0.00    -0.333 N 
ATOM     14  H   UNL     1       4.067  -3.465  32.667  0.00  0.00    +0.147 HD
BRANCH   8  15
ATOM     15  C   UNL     1       1.901  -5.447  37.666  0.00  0.00    +0.092 C 
BRANCH  15  16
ATOM     16  N   UNL     1       0.634  -6.032  38.026  0.00  0.00    -0.317 NA
ATOM     17  H   UNL     1       0.583  -6.137  39.039  0.00  0.00    +0.119 HD
ATOM     18  H   UNL     1       0.545  -6.947  37.585  0.00  0.00    +0.119 HD
ENDBRANCH  15  16
ENDBRANCH   8  15
ENDBRANCH   2   4
BRANCH   1  19
ATOM     19  C   UNL     1      -0.893  -7.471  31.213  0.00  0.00    +0.267 C 
ATOM     20  N   UNL     1      -2.198  -6.959  31.445  0.00  0.00    -0.264 N 
ATOM     21  C   UNL     1      -3.077  -8.101  31.401  0.00  0.00    +0.308 C 
ATOM     22  O   UNL     1      -4.313  -8.082  31.172  0.00  0.00    -0.252 OA
ATOM     23  N   UNL     1      -2.317  -9.286  31.660  0.00  0.00    -0.237 N 
ATOM     24  C   UNL     1      -0.983  -8.836  31.858  0.00  0.00    +0.270 C 
ATOM     25  O   UNL     1      -0.030  -9.390  32.432  0.00  0.00    -0.271 OA
ATOM     26  H   UNL     1      -2.449  -6.020  31.603  0.00  0.00    +0.153 HD
ATOM     27  H   UNL     1      -2.647 -10.213  31.694  0.00  0.00    +0.159 HD
ENDBRANCH   1  19
BRANCH   1  28
ATOM     28  O   UNL     1       1.131  -6.202  30.995  0.00  0.00    -0.308 OA
BRANCH  28  29
ATOM     29  C   UNL     1       0.790  -5.107  30.172  0.00  0.00    +0.531 C 
ATOM     30  O   UNL     1      -0.340  -4.620  30.315  0.00  0.00    -0.201 OA
BRANCH  29  31
ATOM     31  O   UNL     1       1.646  -4.570  29.237  0.00  0.00    -0.448 OA
ATOM     32  H   UNL     1       2.502  -4.933  29.123  0.00  0.00    +0.299 HD
ENDBRANCH  29  31
ENDBRANCH  28  29
ENDBRANCH   1  28
TORSDOF 7
