REMARK  Name = =
REMARK  8 active torsions:
REMARK  status: ('A' for Active; 'I' for Inactive)
REMARK    1  A    between atoms: C_1  and  C_22
REMARK    2  A    between atoms: C_5  and  C_35
REMARK    3  A    between atoms: C_9  and  C_11
REMARK    4  A    between atoms: N_21  and  C_24
REMARK    5  A    between atoms: N_21  and  O_31
REMARK    6  A    between atoms: O_31  and  C_32
REMARK    7  A    between atoms: C_32  and  O_34
REMARK    8  A    between atoms: C_35  and  N_36
REMARK                            x       y       z     vdW  Elec       q    Type
REMARK                         _______ _______ _______ _____ _____    ______ ____
ROOT
ATOM      1  C   UNL     1       0.833  -7.056  31.904  0.00  0.00    +0.057 C 
ATOM      2  C   UNL     1       1.440  -7.504  30.762  0.00  0.00    +0.019 C 
ATOM      3  C   UNL     1       0.696  -7.818  29.623  0.00  0.00    +0.041 C 
ATOM      4  C   UNL     1      -0.672  -7.687  29.625  0.00  0.00    -0.012 C 
ATOM      5  C   UNL     1      -1.321  -7.238  30.757  0.00  0.00    -0.009 C 
ATOM      6  C   UNL     1      -0.568  -6.939  31.845  0.00  0.00    +0.001 C 
ATOM      7  C   UNL     1      -1.407  -8.082  28.407  0.00  0.00    +0.029 C 
ATOM      8  C   UNL     1      -0.717  -7.604  27.187  0.00  0.00    +0.030 C 
ATOM      9  C   UNL     1       0.772  -7.717  27.168  0.00  0.00    +0.112 C 
ATOM     10  N   UNL     1       1.316  -8.253  28.400  0.00  0.00    -0.330 N 
ATOM     11  H   UNL     1       2.072  -8.883  28.400  0.00  0.00    +0.147 HD
ENDROOT
BRANCH   9  12
ATOM     12  C   UNL     1       1.177  -8.450  25.958  0.00  0.00    +0.100 C 
ATOM     13  N   UNL     1       1.797  -7.836  24.938  0.00  0.00    -0.151 NA
ATOM     14  N   UNL     1       2.186  -8.424  23.824  0.00  0.00    -0.147 NA
ATOM     15  C   UNL     1       1.948  -9.736  23.690  0.00  0.00    +0.122 C 
ATOM     16  C   UNL     1       1.325 -10.456  24.666  0.00  0.00    +0.025 C 
ATOM     17  C   UNL     1       0.929  -9.812  25.821  0.00  0.00    +0.038 C 
ATOM     18  C   UNL     1       0.305 -10.518  26.828  0.00  0.00    +0.100 C 
ATOM     19  N   UNL     1       0.096 -11.824  26.658  0.00  0.00    -0.242 NA
ATOM     20  C   UNL     1       0.470 -12.474  25.545  0.00  0.00    +0.099 C 
ATOM     21  C   UNL     1       1.097 -11.832  24.504  0.00  0.00    +0.022 C 
ENDBRANCH   9  12
BRANCH   1  23
ATOM     22  N   UNL     1       2.586  -5.822  33.292  0.00  0.00    -0.086 N 
ATOM     23  C   UNL     1       1.520  -6.716  33.114  0.00  0.00    +0.282 C 
ATOM     24  O   UNL     1       1.109  -7.315  34.193  0.00  0.00    -0.267 OA
BRANCH  22  25
ATOM     25  C   UNL     1       3.169  -5.643  34.639  0.00  0.00    +0.267 C 
ATOM     26  N   UNL     1       4.343  -4.788  34.406  0.00  0.00    -0.264 N 
ATOM     27  C   UNL     1       3.963  -3.416  34.511  0.00  0.00    +0.308 C 
ATOM     28  O   UNL     1       4.594  -2.410  34.099  0.00  0.00    -0.252 OA
ATOM     29  N   UNL     1       2.716  -3.434  35.182  0.00  0.00    -0.237 N 
ATOM     30  C   UNL     1       2.346  -4.793  35.480  0.00  0.00    +0.270 C 
ATOM     31  O   UNL     1       1.461  -5.173  36.329  0.00  0.00    -0.271 OA
ATOM     32  H   UNL     1       5.251  -5.112  34.208  0.00  0.00    +0.153 HD
ATOM     33  H   UNL     1       2.183  -2.638  35.410  0.00  0.00    +0.159 HD
ENDBRANCH  22  25
BRANCH  22  34
ATOM     34  O   UNL     1       3.144  -5.107  32.295  0.00  0.00    -0.308 OA
BRANCH  34  35
ATOM     35  C   UNL     1       2.474  -4.657  31.180  0.00  0.00    +0.531 C 
ATOM     36  O   UNL     1       1.392  -4.048  31.279  0.00  0.00    -0.201 OA
BRANCH  35  37
ATOM     37  O   UNL     1       3.059  -4.910  29.926  0.00  0.00    -0.448 OA
ATOM     38  H   UNL     1       3.874  -5.370  29.873  0.00  0.00    +0.299 HD
ENDBRANCH  35  37
ENDBRANCH  34  35
ENDBRANCH  22  34
ENDBRANCH   1  23
BRANCH   5  39
ATOM     39  C   UNL     1      -2.786  -7.122  30.665  0.00  0.00    +0.092 C 
BRANCH  39  40
ATOM     40  N   UNL     1      -3.325  -6.133  31.542  0.00  0.00    -0.317 NA
ATOM     41  H   UNL     1      -4.339  -6.099  31.434  0.00  0.00    +0.119 HD
ATOM     42  H   UNL     1      -2.928  -5.222  31.312  0.00  0.00    +0.119 HD
ENDBRANCH  39  40
ENDBRANCH   5  39
TORSDOF 8
