REMARK  Name = =
REMARK  0 active torsions:
REMARK  status: ('A' for Active; 'I' for Inactive)
REMARK                            x       y       z     vdW  Elec       q    Type
REMARK                         _______ _______ _______ _____ _____    ______ ____
ROOT
ATOM      1  N   UNL     1      -6.721  -1.217  31.324  0.00  0.00    -0.271 NA
ATOM      2  C   UNL     1      -5.889  -2.391  31.405  0.00  0.00    +0.073 C 
ATOM      3  C   UNL     1      -5.253  -2.413  32.758  0.00  0.00    +0.019 C 
ATOM      4  C   UNL     1      -6.295  -1.703  33.611  0.00  0.00    +0.019 C 
ATOM      5  C   UNL     1      -6.932  -0.733  32.660  0.00  0.00    +0.072 C 
ATOM      6  C   UNL     1      -4.920  -2.505  30.271  0.00  0.00    +0.085 C 
ATOM      7  N   UNL     1      -3.640  -2.991  30.705  0.00  0.00    -0.296 NA
ATOM      8  C   UNL     1      -2.610  -2.810  29.728  0.00  0.00    +0.069 C 
ATOM      9  C   UNL     1      -2.934  -3.376  28.379  0.00  0.00    +0.017 C 
ATOM     10  C   UNL     1      -2.926  -2.291  27.314  0.00  0.00    +0.003 C 
ATOM     11  C   UNL     1      -1.668  -2.339  26.473  0.00  0.00    +0.017 C 
ATOM     12  C   UNL     1      -1.887  -1.465  25.251  0.00  0.00    +0.069 C 
ATOM     13  N   UNL     1      -3.173  -1.797  24.692  0.00  0.00    -0.296 NA
ATOM     14  C   UNL     1      -3.824  -0.623  24.115  0.00  0.00    +0.086 C 
ATOM     15  C   UNL     1      -5.311  -0.785  24.271  0.00  0.00    +0.089 C 
ATOM     16  N   UNL     1      -6.032  -0.085  23.224  0.00  0.00    -0.271 NA
ATOM     17  C   UNL     1      -7.455  -0.287  23.469  0.00  0.00    +0.073 C 
ATOM     18  C   UNL     1      -8.098   0.199  22.211  0.00  0.00    +0.019 C 
ATOM     19  C   UNL     1      -7.026  -0.083  21.154  0.00  0.00    +0.019 C 
ATOM     20  C   UNL     1      -5.882  -0.746  21.933  0.00  0.00    +0.072 C 
ATOM     21  C   UNL     1      -7.935   0.404  24.708  0.00  0.00    +0.085 C 
ATOM     22  N   UNL     1      -8.236  -0.646  25.690  0.00  0.00    -0.295 NA
ATOM     23  C   UNL     1      -9.168  -0.209  26.685  0.00  0.00    +0.086 C 
ATOM     24  C   UNL     1      -8.501  -0.400  28.044  0.00  0.00    +0.086 C 
ATOM     25  N   UNL     1      -9.481  -0.749  29.059  0.00  0.00    -0.295 NA
ATOM     26  C   UNL     1      -8.842  -0.442  30.348  0.00  0.00    +0.086 C 
ATOM     27  C   UNL     1      -7.964  -1.618  30.677  0.00  0.00    +0.089 C 
ATOM     28  H   UNL     1      -3.723  -3.987  30.909  0.00  0.00    +0.123 HD
ATOM     29  H   UNL     1      -3.767  -2.177  25.429  0.00  0.00    +0.123 HD
ATOM     30  H   UNL     1      -7.369  -0.922  26.151  0.00  0.00    +0.123 HD
ATOM     31  H   UNL     1      -9.713  -1.741  29.004  0.00  0.00    +0.123 HD
ENDROOT
TORSDOF 0
