REMARK  Name = =
REMARK  1 active torsions:
REMARK  status: ('A' for Active; 'I' for Inactive)
REMARK    1  A    between atoms: C_1  and  C_12
REMARK                            x       y       z     vdW  Elec       q    Type
REMARK                         _______ _______ _______ _____ _____    ______ ____
ROOT
ATOM      1  C   UNL     1     -13.973 -42.576  26.955  0.00  0.00    +0.077 C 
ATOM      2  C   UNL     1     -15.392 -42.160  26.917  0.00  0.00    +0.012 C 
ATOM      3  C   UNL     1     -15.980 -42.481  25.585  0.00  0.00    +0.019 C 
ATOM      4  C   UNL     1     -15.356 -41.413  24.680  0.00  0.00    +0.004 C 
ATOM      5  C   UNL     1     -13.901 -41.777  24.547  0.00  0.00    +0.001 C 
ATOM      6  C   UNL     1     -13.195 -42.067  25.813  0.00  0.00    +0.009 C 
ATOM      7  C   UNL     1     -17.439 -42.365  25.662  0.00  0.00    -0.045 C 
ATOM      8  C   UNL     1     -18.243 -43.087  24.873  0.00  0.00    -0.009 C 
ATOM      9  C   UNL     1     -18.007 -41.402  26.663  0.00  0.00    +0.022 C 
ATOM     10  C   UNL     1     -17.466 -41.608  28.037  0.00  0.00    +0.004 C 
ATOM     11  C   UNL     1     -16.232 -42.483  28.079  0.00  0.00    +0.001 C 
ENDROOT
BRANCH   1  12
ATOM     12  C   UNL     1     -13.920 -44.060  27.068  0.00  0.00    +0.219 C 
ATOM     13  O   UNL     1     -13.912 -44.707  25.987  0.00  0.00    -0.275 OA
ATOM     14  N   UNL     1     -13.878 -44.729  28.323  0.00  0.00    -0.329 N 
ATOM     15  H   UNL     1     -13.885 -44.209  29.159  0.00  0.00    +0.145 HD
ATOM     16  H   UNL     1     -13.842 -45.712  28.356  0.00  0.00    +0.145 HD
ENDBRANCH   1  12
TORSDOF 1
