MODEL 1
REMARK VINA RESULT:    -8.775      0.000      0.000
REMARK INTER + INTRA:         -14.817
REMARK INTER:                 -13.391
REMARK INTRA:                  -1.425
REMARK UNBOUND:                -1.425
REMARK  Name = =
REMARK  10 active torsions:
REMARK  status: ('A' for Active; 'I' for Inactive)
REMARK    1  A    between atoms: C_1  and  O_4
REMARK    2  A    between atoms: N_3  and  N_17
REMARK    3  A    between atoms: O_4  and  N_5
REMARK    4  A    between atoms: N_5  and  C_7
REMARK    5  A    between atoms: C_7  and  C_14
REMARK    6  A    between atoms: N_17  and  S_18
REMARK    7  A    between atoms: N_17  and  O_21
REMARK    8  A    between atoms: O_21  and  C_22
REMARK    9  A    between atoms: C_23  and  O_29
REMARK   10  A    between atoms: C_26  and  O_28
REMARK                            x       y       z     vdW  Elec       q    Type
REMARK                         _______ _______ _______ _____ _____    ______ ____
ROOT
ATOM      1  C   UNL     1      52.243 157.541  28.749  0.00  0.00    +0.437 C 
ATOM      2  O   UNL     1      53.480 157.589  28.824  0.00  0.00    -0.223 OA
ATOM      3  N   UNL     1      51.655 156.358  28.274  0.00  0.00    -0.160 N 
ATOM      4  H   UNL     1      50.672 156.348  28.226  0.00  0.00    +0.178 HD
ENDROOT
BRANCH   1   5
ATOM      5  O   UNL     1      51.473 158.633  29.130  0.00  0.00    -0.347 OA
BRANCH   5   6
ATOM      6  N   UNL     1      50.841 158.542  30.374  0.00  0.00    -0.088 NA
ATOM      7  C   UNL     1      49.608 157.798  30.098  0.00  0.00    +0.137 C 
BRANCH   6   8
ATOM      8  C   UNL     1      50.399 159.911  30.720  0.00  0.00    +0.192 C 
ATOM      9  O   UNL     1      49.323 160.158  29.920  0.00  0.00    -0.330 OA
ATOM     10  C   UNL     1      48.515 161.207  30.234  0.00  0.00    +0.208 C 
ATOM     11  C   UNL     1      48.553 161.620  31.640  0.00  0.00    +0.181 C 
ATOM     12  O   UNL     1      48.283 162.745  31.971  0.00  0.00    -0.293 OA
ATOM     13  C   UNL     1      48.935 160.622  32.657  0.00  0.00    +0.071 C 
ATOM     14  C   UNL     1      50.158 159.902  32.194  0.00  0.00    +0.058 C 
BRANCH   8  15
ATOM     15  C   UNL     1      51.570 160.774  30.449  0.00  0.00    +0.025 C 
ATOM     16  C   UNL     1      52.296 161.394  31.340  0.00  0.00    +0.035 C 
ATOM     17  I   UNL     1      53.940 162.590  30.776  0.00  0.00    -0.042 I 
ENDBRANCH   8  15
ENDBRANCH   6   8
ENDBRANCH   5   6
ENDBRANCH   1   5
BRANCH   3  18
ATOM     18  N   UNL     1      52.289 155.225  27.872  0.00  0.00    +0.082 NA
BRANCH  18  19
ATOM     19  S   UNL     1      52.302 153.931  28.967  0.00  0.00    +0.069 S 
ATOM     20  O   UNL     1      51.499 154.235  30.225  0.00  0.00    -0.157 OA
ATOM     21  O   UNL     1      51.898 152.609  28.386  0.00  0.00    -0.157 OA
ATOM     22  H   UNL     1      53.612 153.800  29.304  0.00  0.00    +0.235 HD
ENDBRANCH  18  19
BRANCH  18  23
ATOM     23  O   UNL     1      51.955 154.769  26.645  0.00  0.00    -0.362 OA
BRANCH  23  24
ATOM     24  C   UNL     1      52.949 154.456  25.731  0.00  0.00    +0.206 C 
ATOM     25  C   UNL     1      53.888 155.383  25.364  0.00  0.00    +0.171 C 
ATOM     26  C   UNL     1      54.888 155.106  24.462  0.00  0.00    +0.043 C 
ATOM     27  C   UNL     1      54.962 153.845  23.894  0.00  0.00    +0.040 C 
ATOM     28  C   UNL     1      54.020 152.905  24.260  0.00  0.00    +0.137 C 
ATOM     29  C   UNL     1      53.018 153.199  25.171  0.00  0.00    +0.079 C 
BRANCH  28  30
ATOM     30  O   UNL     1      54.081 151.633  23.697  0.00  0.00    -0.505 OA
ATOM     31  H   UNL     1      54.170 151.536  22.770  0.00  0.00    +0.292 HD
ENDBRANCH  28  30
BRANCH  25  32
ATOM     32  O   UNL     1      53.861 156.676  25.909  0.00  0.00    -0.503 OA
ATOM     33  H   UNL     1      54.568 157.268  25.744  0.00  0.00    +0.292 HD
ENDBRANCH  25  32
ENDBRANCH  23  24
ENDBRANCH  18  23
ENDBRANCH   3  18
TORSDOF 10
ENDMDL
