REMARK  Name = =
REMARK  1 active torsions:
REMARK  status: ('A' for Active; 'I' for Inactive)
REMARK    1  A    between atoms: C_2  and  C_7
REMARK                            x       y       z     vdW  Elec       q    Type
REMARK                         _______ _______ _______ _____ _____    ______ ____
ROOT
ATOM      1  C   UNL     1     -13.480 -44.531  27.406  0.00  0.00    +0.008 C 
ATOM      2  C   UNL     1     -13.124 -43.301  26.637  0.00  0.00    +0.008 C 
ATOM      3  C   UNL     1     -12.278 -42.517  27.651  0.00  0.00    +0.065 C 
ATOM      4  C   UNL     1     -11.624 -43.594  28.438  0.00  0.00    +0.151 C 
ATOM      5  O   UNL     1     -10.810 -43.392  29.313  0.00  0.00    -0.296 OA
ATOM      6  C   UNL     1     -12.117 -44.923  27.992  0.00  0.00    +0.065 C 
ENDROOT
BRANCH   2   7
ATOM      7  C   UNL     1     -14.322 -42.429  26.336  0.00  0.00    +0.000 C 
ATOM      8  C   UNL     1     -15.483 -43.191  25.780  0.00  0.00    +0.000 C 
ATOM      9  C   UNL     1     -15.520 -42.888  24.312  0.00  0.00    +0.000 C 
ATOM     10  C   UNL     1     -15.052 -41.433  24.274  0.00  0.00    +0.000 C 
ATOM     11  C   UNL     1     -13.907 -41.455  25.252  0.00  0.00    +0.000 C 
ENDBRANCH   2   7
TORSDOF 1
