REMARK  Name = =
REMARK  4 active torsions:
REMARK  status: ('A' for Active; 'I' for Inactive)
REMARK    1  A    between atoms: N_1  and  C_7
REMARK    2  A    between atoms: N_4  and  C_18
REMARK    3  A    between atoms: C_8  and  C_13
REMARK    4  A    between atoms: C_19  and  O_24
REMARK                            x       y       z     vdW  Elec       q    Type
REMARK                         _______ _______ _______ _____ _____    ______ ____
ROOT
ATOM      1  N   UNL     1     -14.402 -42.694  27.606  0.00  0.00    -0.271 NA
ATOM      2  C   UNL     1     -15.685 -42.487  28.153  0.00  0.00    +0.094 C 
ATOM      3  C   UNL     1     -16.647 -41.732  27.231  0.00  0.00    +0.108 C 
ATOM      4  N   UNL     1     -16.556 -42.177  25.861  0.00  0.00    -0.302 N 
ATOM      5  C   UNL     1     -15.268 -42.638  25.394  0.00  0.00    +0.108 C 
ATOM      6  C   UNL     1     -14.229 -42.038  26.362  0.00  0.00    +0.094 C 
ENDROOT
BRANCH   1   7
ATOM      7  C   UNL     1     -13.283 -42.646  28.486  0.00  0.00    +0.065 C 
ATOM      8  C   UNL     1     -12.868 -43.940  29.089  0.00  0.00    +0.022 C 
ATOM      9  C   UNL     1     -11.418 -43.745  29.425  0.00  0.00    +0.066 C 
ATOM     10  C   UNL     1     -10.919 -42.970  28.262  0.00  0.00    +0.152 C 
ATOM     11  O   UNL     1      -9.753 -42.922  27.927  0.00  0.00    -0.296 OA
ATOM     12  C   UNL     1     -12.068 -42.295  27.613  0.00  0.00    +0.080 C 
BRANCH   8  13
ATOM     13  C   UNL     1     -13.605 -44.408  30.278  0.00  0.00    +0.002 C 
ATOM     14  C   UNL     1     -13.992 -43.405  31.299  0.00  0.00    +0.000 C 
ATOM     15  C   UNL     1     -14.232 -44.266  32.533  0.00  0.00    +0.000 C 
ATOM     16  C   UNL     1     -13.541 -45.579  32.296  0.00  0.00    +0.000 C 
ATOM     17  C   UNL     1     -12.643 -45.278  31.109  0.00  0.00    +0.000 C 
ENDBRANCH   8  13
ENDBRANCH   1   7
BRANCH   4  18
ATOM     18  C   UNL     1     -17.710 -42.134  25.052  0.00  0.00    +0.082 C 
ATOM     19  C   UNL     1     -17.579 -41.525  23.817  0.00  0.00    +0.147 C 
ATOM     20  C   UNL     1     -18.660 -41.443  22.968  0.00  0.00    +0.038 C 
ATOM     21  C   UNL     1     -19.862 -41.977  23.376  0.00  0.00    +0.003 C 
ATOM     22  C   UNL     1     -19.991 -42.581  24.601  0.00  0.00    +0.001 C 
ATOM     23  C   UNL     1     -18.928 -42.672  25.459  0.00  0.00    +0.018 C 
BRANCH  19  24
ATOM     24  O   UNL     1     -16.366 -40.992  23.418  0.00  0.00    -0.504 OA
ATOM     25  H   UNL     1     -15.623 -41.041  23.987  0.00  0.00    +0.292 HD
ENDBRANCH  19  24
ENDBRANCH   4  18
TORSDOF 4
