REMARK  Name = =
REMARK  6 active torsions:
REMARK  status: ('A' for Active; 'I' for Inactive)
REMARK    1  A    between atoms: C_1  and  C_8
REMARK    2  A    between atoms: C_1  and  N_19
REMARK    3  A    between atoms: C_2  and  C_32
REMARK    4  A    between atoms: S_7  and  C_14
REMARK    5  A    between atoms: N_22  and  C_25
REMARK    6  A    between atoms: C_26  and  O_31
REMARK                            x       y       z     vdW  Elec       q    Type
REMARK                         _______ _______ _______ _____ _____    ______ ____
ROOT
ATOM      1  C   UNL     1     -12.372 -43.718  29.131  0.00  0.00    +0.063 C 
ATOM      2  C   UNL     1     -13.512 -43.812  30.074  0.00  0.00    +0.022 C 
ATOM      3  C   UNL     1     -13.147 -42.926  31.303  0.00  0.00    +0.066 C 
ATOM      4  C   UNL     1     -11.702 -42.690  31.051  0.00  0.00    +0.152 C 
ATOM      5  O   UNL     1     -10.803 -42.737  31.811  0.00  0.00    -0.296 OA
ATOM      6  C   UNL     1     -11.726 -42.389  29.608  0.00  0.00    +0.080 C 
ENDROOT
BRANCH   1   8
ATOM      7  S   UNL     1      -9.700 -44.328  29.596  0.00  0.00    -0.153 S 
ATOM      8  C   UNL     1     -11.360 -44.747  29.538  0.00  0.00    +0.070 C 
ATOM      9  C   UNL     1     -11.746 -45.860  30.443  0.00  0.00    +0.080 C 
ATOM     10  N   UNL     1     -10.895 -45.661  31.651  0.00  0.00    -0.296 NA
ATOM     11  C   UNL     1      -9.600 -46.266  31.430  0.00  0.00    +0.080 C 
ATOM     12  C   UNL     1      -8.980 -45.960  30.144  0.00  0.00    +0.067 C 
ATOM     13  H   UNL     1     -11.341 -46.097  32.458  0.00  0.00    +0.123 HD
BRANCH   7  14
ATOM     14  C   UNL     1      -8.742 -43.411  28.627  0.00  0.00    +0.144 C 
ATOM     15  N   UNL     1      -9.455 -42.891  27.407  0.00  0.00    -0.281 NA
ATOM     16  C   UNL     1      -8.508 -41.981  26.793  0.00  0.00    +0.082 C 
ATOM     17  C   UNL     1      -8.325 -40.825  27.788  0.00  0.00    +0.077 C 
ATOM     18  S   UNL     1      -8.296 -41.823  29.335  0.00  0.00    -0.113 S 
ATOM     19  H   UNL     1     -10.309 -42.399  27.671  0.00  0.00    +0.125 HD
ENDBRANCH   7  14
ENDBRANCH   1   8
BRANCH   1  20
ATOM     20  N   UNL     1     -12.583 -43.541  27.759  0.00  0.00    -0.271 NA
ATOM     21  C   UNL     1     -12.534 -42.234  27.222  0.00  0.00    +0.094 C 
ATOM     22  C   UNL     1     -13.892 -41.631  26.814  0.00  0.00    +0.108 C 
ATOM     23  N   UNL     1     -14.330 -42.377  25.672  0.00  0.00    -0.302 N 
ATOM     24  C   UNL     1     -13.867 -43.725  25.638  0.00  0.00    +0.108 C 
ATOM     25  C   UNL     1     -13.623 -44.221  27.099  0.00  0.00    +0.094 C 
BRANCH  23  26
ATOM     26  C   UNL     1     -15.131 -41.841  24.686  0.00  0.00    +0.082 C 
ATOM     27  C   UNL     1     -16.501 -41.886  24.747  0.00  0.00    +0.147 C 
ATOM     28  C   UNL     1     -17.226 -41.327  23.722  0.00  0.00    +0.038 C 
ATOM     29  C   UNL     1     -16.618 -40.721  22.633  0.00  0.00    +0.003 C 
ATOM     30  C   UNL     1     -15.234 -40.677  22.571  0.00  0.00    +0.001 C 
ATOM     31  C   UNL     1     -14.501 -41.235  23.593  0.00  0.00    +0.018 C 
BRANCH  27  32
ATOM     32  O   UNL     1     -17.097 -42.492  25.839  0.00  0.00    -0.504 OA
ATOM     33  H   UNL     1     -16.566 -42.861  26.517  0.00  0.00    +0.292 HD
ENDBRANCH  27  32
ENDBRANCH  23  26
ENDBRANCH   1  20
BRANCH   2  34
ATOM     34  C   UNL     1     -14.912 -43.662  29.812  0.00  0.00    +0.002 C 
ATOM     35  C   UNL     1     -14.959 -42.579  28.659  0.00  0.00    +0.000 C 
ATOM     36  C   UNL     1     -16.475 -42.480  28.509  0.00  0.00    +0.000 C 
ATOM     37  C   UNL     1     -16.969 -42.581  29.934  0.00  0.00    +0.000 C 
ATOM     38  C   UNL     1     -15.697 -42.739  30.775  0.00  0.00    +0.000 C 
ENDBRANCH   2  34
TORSDOF 6
REMARK  Name = =
REMARK  6 active torsions:
REMARK  status: ('A' for Active; 'I' for Inactive)
REMARK    1  A    between atoms: C_1  and  C_8
REMARK    2  A    between atoms: C_1  and  N_19
REMARK    3  A    between atoms: C_2  and  C_32
REMARK    4  A    between atoms: S_7  and  C_14
REMARK    5  A    between atoms: N_22  and  C_25
REMARK    6  A    between atoms: C_26  and  O_31
REMARK                            x       y       z     vdW  Elec       q    Type
REMARK                         _______ _______ _______ _____ _____    ______ ____
ROOT
ATOM      1  H   UNK     1      -9.513 -43.494  31.347  0.00  0.00    +0.000 HD
ENDROOT
TORSDOF 0
