REMARK  Name = =
REMARK  2 active torsions:
REMARK  status: ('A' for Active; 'I' for Inactive)
REMARK    1  A    between atoms: C_1  and  O_3
REMARK    2  A    between atoms: C_1  and  O_4
REMARK                            x       y       z     vdW  Elec       q    Type
REMARK                         _______ _______ _______ _____ _____    ______ ____
ROOT
ATOM      1  C   UNL     1     -14.249 -43.973  31.049  0.00  0.00    +0.505 C 
ATOM      2  O   UNL     1     -15.109 -43.685  30.177  0.00  0.00    -0.203 OA
ENDROOT
BRANCH   1   3
ATOM      3  O   UNL     1     -13.275 -43.047  31.408  0.00  0.00    -0.450 OA
ATOM      4  H   UNL     1     -12.637 -43.266  32.058  0.00  0.00    +0.299 HD
ENDBRANCH   1   3
BRANCH   1   5
ATOM      5  O   UNL     1     -14.290 -45.220  31.639  0.00  0.00    -0.450 OA
ATOM      6  H   UNL     1     -13.657 -45.451  32.290  0.00  0.00    +0.299 HD
ENDBRANCH   1   5
TORSDOF 2
