REMARK  Name = =
REMARK  2 active torsions:
REMARK  status: ('A' for Active; 'I' for Inactive)
REMARK    1  A    between atoms: C_6  and  N_13
REMARK    2  A    between atoms: N_13  and  N_14
REMARK                            x       y       z     vdW  Elec       q    Type
REMARK                         _______ _______ _______ _____ _____    ______ ____
ROOT
ATOM      1  C   UNL     1     -12.342 -42.977  27.549  0.00  0.00    -0.005 C 
ATOM      2  C   UNL     1     -12.684 -44.215  27.393  0.00  0.00    +0.055 C 
ATOM      3  N   UNL     1     -13.902 -44.271  26.581  0.00  0.00    -0.332 N 
ATOM      4  C   UNL     1     -13.956 -43.017  25.863  0.00  0.00    +0.092 C 
ATOM      5  C   UNL     1     -13.323 -42.088  26.859  0.00  0.00    +0.049 C 
ATOM      6  C   UNL     1     -11.933 -45.338  27.972  0.00  0.00    +0.072 C 
ATOM      7  C   UNL     1     -10.765 -44.960  28.729  0.00  0.00    +0.033 C 
ATOM      8  C   UNL     1     -10.391 -43.713  28.901  0.00  0.00    +0.072 C 
ATOM      9  C   UNL     1     -11.148 -42.617  28.328  0.00  0.00    +0.014 C 
ATOM     10  C   UNL     1     -10.578 -41.483  28.641  0.00  0.00    +0.019 C 
ATOM     11  C   UNL     1      -9.399 -41.789  29.450  0.00  0.00    +0.086 C 
ATOM     12  N   UNL     1      -9.308 -43.070  29.588  0.00  0.00    -0.211 NA
ATOM     13  H   UNL     1     -14.550 -45.010  26.534  0.00  0.00    +0.147 HD
ENDROOT
BRANCH   6  14
ATOM     14  N   UNL     1     -11.640 -46.298  26.911  0.00  0.00    -0.281 N 
ATOM     15  H   UNL     1     -10.752 -46.637  26.655  0.00  0.00    +0.166 HD
BRANCH  14  16
ATOM     16  N   UNL     1     -12.863 -46.643  26.330  0.00  0.00    -0.256 NA
ATOM     17  H   UNL     1     -13.616 -46.138  26.798  0.00  0.00    +0.140 HD
ATOM     18  H   UNL     1     -13.015 -47.647  26.428  0.00  0.00    +0.140 HD
ENDBRANCH  14  16
ENDBRANCH   6  14
TORSDOF 2
