REMARK  Name = =
REMARK  3 active torsions:
REMARK  status: ('A' for Active; 'I' for Inactive)
REMARK    1  A    between atoms: C_6  and  N_13
REMARK    2  A    between atoms: N_13  and  N_14
REMARK    3  A    between atoms: N_13  and  C_15
REMARK                            x       y       z     vdW  Elec       q    Type
REMARK                         _______ _______ _______ _____ _____    ______ ____
ROOT
ATOM      1  C   UNL     1     -12.158 -42.844  27.681  0.00  0.00    -0.022 C 
ATOM      2  C   UNL     1     -12.376 -44.074  28.083  0.00  0.00    +0.111 C 
ATOM      3  N   UNL     1     -13.610 -44.562  27.556  0.00  0.00    -0.291 NA
ATOM      4  C   UNL     1     -14.342 -43.419  27.049  0.00  0.00    +0.073 C 
ATOM      5  C   UNL     1     -13.278 -42.379  26.805  0.00  0.00    +0.041 C 
ATOM      6  C   UNL     1     -11.416 -44.768  28.955  0.00  0.00    +0.064 C 
ATOM      7  C   UNL     1     -10.228 -43.966  29.319  0.00  0.00    +0.033 C 
ATOM      8  C   UNL     1      -9.996 -42.740  28.929  0.00  0.00    +0.082 C 
ATOM      9  C   UNL     1     -10.973 -42.094  28.065  0.00  0.00    +0.013 C 
ATOM     10  C   UNL     1     -10.546 -40.859  27.788  0.00  0.00    +0.022 C 
ATOM     11  C   UNL     1      -9.281 -40.685  28.469  0.00  0.00    +0.099 C 
ATOM     12  N   UNL     1      -8.968 -41.765  29.123  0.00  0.00    -0.244 NA
ATOM     13  H   UNL     1     -14.146 -45.022  28.292  0.00  0.00    +0.124 HD
ENDROOT
BRANCH   6  14
ATOM     14  N   UNL     1     -10.916 -45.987  28.355  0.00  0.00    -0.237 N 
BRANCH  14  15
ATOM     15  N   UNL     1     -11.642 -46.539  27.310  0.00  0.00    -0.249 NA
ATOM     16  H   UNL     1     -11.179 -47.388  26.985  0.00  0.00    +0.141 HD
ATOM     17  H   UNL     1     -11.698 -45.868  26.544  0.00  0.00    +0.141 HD
ENDBRANCH  14  15
BRANCH  14  18
ATOM     18  C   UNL     1      -9.733 -46.594  28.816  0.00  0.00    +0.081 C 
ATOM     19  C   UNL     1      -8.963 -47.319  28.023  0.00  0.00    +0.019 C 
ENDBRANCH  14  18
ENDBRANCH   6  14
TORSDOF 3
