REMARK  Name = =
REMARK  0 active torsions:
REMARK  status: ('A' for Active; 'I' for Inactive)
REMARK                            x       y       z     vdW  Elec       q    Type
REMARK                         _______ _______ _______ _____ _____    ______ ____
ROOT
ATOM      1  N   UNL     1       1.307 -10.511  21.739  0.00  0.00    -0.268 N 
ATOM      2  C   UNL     1       0.173 -10.735  20.900  0.00  0.00    +0.099 C 
ATOM      3  C   UNL     1      -0.969  -9.777  21.211  0.00  0.00    +0.048 C 
ATOM      4  C   UNL     1      -0.414  -8.403  21.111  0.00  0.00    -0.023 C 
ATOM      5  C   UNL     1       0.796  -8.163  21.725  0.00  0.00    -0.006 C 
ATOM      6  C   UNL     1       1.522  -9.254  22.467  0.00  0.00    +0.120 C 
ATOM      7  C   UNL     1       1.321  -6.889  21.639  0.00  0.00    -0.003 C 
ATOM      8  C   UNL     1       0.684  -5.866  20.968  0.00  0.00    -0.000 C 
ATOM      9  C   UNL     1      -0.519  -6.162  20.373  0.00  0.00    -0.000 C 
ATOM     10  C   UNL     1      -1.093  -7.416  20.428  0.00  0.00    -0.004 C 
ATOM     11  C   UNL     1       2.282 -11.527  21.894  0.00  0.00    +0.303 C 
ATOM     12  O   UNL     1       3.294 -11.381  22.618  0.00  0.00    -0.265 OA
ENDROOT
TORSDOF 0
