REMARK  Name = =
REMARK  2 active torsions:
REMARK  status: ('A' for Active; 'I' for Inactive)
REMARK    1  A    between atoms: C_6  and  O_11
REMARK    2  A    between atoms: O_11  and  C_12
REMARK                            x       y       z     vdW  Elec       q    Type
REMARK                         _______ _______ _______ _____ _____    ______ ____
ROOT
ATOM      1  N   UNL     1      54.926 158.104  26.016  0.00  0.00    -0.224 NA
ATOM      2  C   UNL     1      54.546 156.938  25.708  0.00  0.00    +0.185 A 
ATOM      3  C   UNL     1      53.695 156.384  26.672  0.00  0.00    +0.167 A 
ATOM      4  N   UNL     1      53.578 157.281  27.586  0.00  0.00    -0.236 NA
ATOM      5  C   UNL     1      54.342 158.462  27.270  0.00  0.00    +0.252 C 
ATOM      6  C   UNL     1      53.192 155.115  26.487  0.00  0.00    +0.250 A 
ATOM      7  N   UNL     1      53.532 154.436  25.377  0.00  0.00    -0.178 NA
ATOM      8  C   UNL     1      54.349 154.942  24.433  0.00  0.00    +0.218 A 
ATOM      9  N   UNL     1      54.827 156.183  24.637  0.00  0.00    -0.193 NA
ATOM     10  N   UNL     1      54.708 154.227  23.262  0.00  0.00    -0.327 N 
ATOM     11  H   UNL     1      55.309 154.638  22.599  0.00  0.00    +0.145 HD
ATOM     12  H   UNL     1      54.356 153.320  23.112  0.00  0.00    +0.145 HD
ENDROOT
BRANCH   6  13
ATOM     13  O   UNL     1      52.362 154.531  27.391  0.00  0.00    -0.432 OA
BRANCH  13  14
ATOM     14  C   UNL     1      52.472 154.365  28.755  0.00  0.00    +0.292 C 
ATOM     15  N   UNL     1      51.414 153.426  29.163  0.00  0.00    -0.249 NA
ATOM     16  C   UNL     1      51.115 153.842  30.543  0.00  0.00    +0.090 C 
ATOM     17  C   UNL     1      51.149 155.329  30.417  0.00  0.00    +0.090 C 
ATOM     18  N   UNL     1      52.079 155.638  29.378  0.00  0.00    -0.249 NA
ATOM     19  H   UNL     1      51.748 152.463  29.135  0.00  0.00    +0.128 HD
ATOM     20  H   UNL     1      51.641 156.245  28.686  0.00  0.00    +0.128 HD
ENDBRANCH  13  14
ENDBRANCH   6  13
TORSDOF 2
