MODEL 1
REMARK VINA RESULT:    -8.835      0.000      0.000
REMARK INTER + INTRA:         -14.149
REMARK INTER:                 -12.451
REMARK INTRA:                  -1.699
REMARK UNBOUND:                -1.699
REMARK  Name = =
REMARK  9 active torsions:
REMARK  status: ('A' for Active; 'I' for Inactive)
REMARK    1  A    between atoms: N_15  and  O_29
REMARK    2  A    between atoms: C_19  and  N_27
REMARK    3  A    between atoms: N_27  and  O_28
REMARK    4  A    between atoms: O_29  and  P_30
REMARK    5  A    between atoms: P_30  and  O_32
REMARK    6  A    between atoms: P_30  and  O_33
REMARK    7  A    between atoms: O_33  and  P_34
REMARK    8  A    between atoms: P_34  and  O_36
REMARK    9  A    between atoms: P_34  and  O_37
REMARK                            x       y       z     vdW  Elec       q    Type
REMARK                         _______ _______ _______ _____ _____    ______ ____
ROOT
ATOM      1  C   UNL     1      -0.756  -3.695  28.429  0.00  0.00    +0.058 C 
ATOM      2  C   UNL     1      -1.226  -2.303  28.736  0.00  0.00    +0.005 C 
ATOM      3  C   UNL     1      -1.084  -1.415  27.497  0.00  0.00    +0.000 C 
ATOM      4  C   UNL     1      -0.155  -2.204  26.590  0.00  0.00    +0.003 C 
ATOM      5  C   UNL     1       1.123  -2.286  27.066  0.00  0.00    +0.037 C 
ATOM      6  C   UNL     1       1.644  -1.796  28.373  0.00  0.00    +0.063 C 
ATOM      7  N   UNL     1       1.364  -2.820  29.340  0.00  0.00    -0.268 NA
ATOM      8  C   UNL     1       0.665  -3.992  28.924  0.00  0.00    +0.197 C 
ATOM      9  N   UNL     1       0.424  -4.886  29.998  0.00  0.00    -0.207 NA
ATOM     10  C   UNL     1       0.624  -6.150  29.946  0.00  0.00    +0.250 C 
ATOM     11  N   UNL     1       1.144  -6.741  28.788  0.00  0.00    -0.182 NA
ATOM     12  C   UNL     1       1.494  -6.037  27.749  0.00  0.00    +0.187 C 
ATOM     13  N   UNL     1       1.395  -4.661  27.788  0.00  0.00    -0.253 N 
ATOM     14  N   UNL     1       1.956  -6.736  26.581  0.00  0.00    -0.331 N 
ATOM     15  N   UNL     1       0.307  -6.971  31.093  0.00  0.00    -0.222 N 
ATOM     16  C   UNL     1       3.081  -1.451  28.130  0.00  0.00    +0.037 C 
ATOM     17  C   UNL     1       3.825  -2.264  27.166  0.00  0.00    -0.048 C 
ATOM     18  C   UNL     1       5.061  -2.136  26.768  0.00  0.00    +0.040 C 
ATOM     19  C   UNL     1       5.701  -3.050  25.768  0.00  0.00    +0.084 C 
ATOM     20  C   UNL     1       5.041  -4.379  25.656  0.00  0.00    +0.023 C 
ATOM     21  C   UNL     1       3.494  -4.243  25.523  0.00  0.00    +0.024 C 
ATOM     22  C   UNL     1       3.089  -3.397  26.551  0.00  0.00    -0.034 C 
ATOM     23  C   UNL     1       1.923  -3.605  27.095  0.00  0.00    +0.097 C 
ATOM     24  C   UNL     1      -0.516  -1.901  25.199  0.00  0.00    +0.000 C 
ATOM     25  C   UNL     1      -1.998  -1.603  25.258  0.00  0.00    +0.000 C 
ATOM     26  C   UNL     1      -2.355  -1.321  26.694  0.00  0.00    +0.000 C 
ATOM     27  H   UNL     1       0.811  -2.388  30.081  0.00  0.00    +0.126 HD
ATOM     28  H   UNL     1       2.014  -7.719  26.586  0.00  0.00    +0.145 HD
ATOM     29  H   UNL     1       2.214  -6.232  25.776  0.00  0.00    +0.145 HD
ATOM     30  H   UNL     1       0.229  -7.949  31.006  0.00  0.00    +0.198 HD
ENDROOT
BRANCH  19  31
ATOM     31  N   UNL     1       5.639  -2.367  24.490  0.00  0.00    -0.195 NA
ATOM     32  H   UNL     1       4.822  -2.692  23.974  0.00  0.00    +0.154 HD
BRANCH  31  33
ATOM     33  O   UNL     1       5.545  -1.017  24.679  0.00  0.00    -0.314 OA
ATOM     34  H   UNL     1       4.695  -0.808  25.099  0.00  0.00    +0.236 HD
ENDBRANCH  31  33
ENDBRANCH  19  31
BRANCH  15  35
ATOM     35  O   UNL     1       0.122  -6.365  32.288  0.00  0.00    -0.166 OA
BRANCH  35  36
ATOM     36  P   UNL     1       1.363  -6.936  33.308  0.00  0.00    +0.505 P 
ATOM     37  O   UNL     1       0.952  -8.265  33.899  0.00  0.00    -0.225 OA
BRANCH  36  38
ATOM     38  O   UNL     1       2.742  -7.125  32.328  0.00  0.00    -0.301 OA
ATOM     39  H   UNL     1       2.727  -8.002  31.913  0.00  0.00    +0.222 HD
ENDBRANCH  36  38
BRANCH  36  40
ATOM     40  O   UNL     1       1.749  -5.808  34.498  0.00  0.00    -0.185 OA
BRANCH  40  41
ATOM     41  P   UNL     1       2.767  -4.654  33.792  0.00  0.00    +0.481 P 
ATOM     42  O   UNL     1       4.169  -5.215  33.609  0.00  0.00    -0.227 OA
BRANCH  41  43
ATOM     43  O   UNL     1       2.810  -3.222  34.687  0.00  0.00    -0.302 OA
ATOM     44  H   UNL     1       3.061  -3.420  35.603  0.00  0.00    +0.222 HD
ENDBRANCH  41  43
BRANCH  41  45
ATOM     45  O   UNL     1       2.166  -4.300  32.249  0.00  0.00    -0.302 OA
ATOM     46  H   UNL     1       2.171  -3.339  32.114  0.00  0.00    +0.222 HD
ENDBRANCH  41  45
ENDBRANCH  40  41
ENDBRANCH  36  40
ENDBRANCH  35  36
ENDBRANCH  15  35
TORSDOF 9
ENDMDL
