MODEL 1
REMARK VINA RESULT:    -6.592      0.000      0.000
REMARK INTER + INTRA:          -9.048
REMARK INTER:                  -8.519
REMARK INTRA:                  -0.529
REMARK UNBOUND:                -0.529
REMARK  Name = =
REMARK  6 active torsions:
REMARK  status: ('A' for Active; 'I' for Inactive)
REMARK    1  A    between atoms: C_1  and  C_11
REMARK    2  A    between atoms: C_1  and  C_33
REMARK    3  A    between atoms: C_8  and  O_41
REMARK    4  A    between atoms: C_9  and  O_40
REMARK    5  A    between atoms: N_29  and  N_35
REMARK    6  A    between atoms: N_35  and  N_38
REMARK                            x       y       z     vdW  Elec       q    Type
REMARK                         _______ _______ _______ _____ _____    ______ ____
ROOT
ATOM      1  C   UNL     1      60.515 163.393  40.143  0.00  0.00    +0.113 C 
ATOM      2  N   UNL     1      61.186 162.477  41.016  0.00  0.00    -0.290 NA
ATOM      3  C   UNL     1      60.784 162.442  42.372  0.00  0.00    +0.074 C 
ATOM      4  C   UNL     1      61.107 163.774  43.032  0.00  0.00    +0.043 C 
ATOM      5  C   UNL     1      60.285 164.771  42.252  0.00  0.00    -0.020 C 
ATOM      6  C   UNL     1      60.010 164.589  40.930  0.00  0.00    -0.003 C 
ATOM      7  C   UNL     1      59.276 165.525  40.261  0.00  0.00    +0.037 C 
ATOM      8  C   UNL     1      58.834 166.647  40.979  0.00  0.00    +0.167 C 
ATOM      9  C   UNL     1      59.111 166.834  42.315  0.00  0.00    +0.167 C 
ATOM     10  C   UNL     1      59.853 165.878  42.968  0.00  0.00    +0.035 C 
ATOM     11  H   UNL     1      62.178 162.712  41.000  0.00  0.00    +0.124 HD
ENDROOT
BRANCH   1  12
ATOM     12  C   UNL     1      59.355 162.699  39.450  0.00  0.00    +0.048 C 
ATOM     13  C   UNL     1      58.364 162.101  40.356  0.00  0.00    -0.021 C 
ATOM     14  C   UNL     1      58.414 160.738  40.689  0.00  0.00    -0.023 C 
ATOM     15  C   UNL     1      57.501 160.159  41.538  0.00  0.00    +0.036 C 
ATOM     16  C   UNL     1      56.491 160.912  42.098  0.00  0.00    +0.176 C 
ATOM     17  C   UNL     1      56.419 162.234  41.789  0.00  0.00    +0.176 C 
ATOM     18  C   UNL     1      57.342 162.807  40.934  0.00  0.00    +0.036 C 
ATOM     19  O   UNL     1      55.333 162.780  42.461  0.00  0.00    -0.435 OA
ATOM     20  C   UNL     1      54.486 161.729  42.919  0.00  0.00    +0.429 C 
ATOM     21  O   UNL     1      55.422 160.660  42.976  0.00  0.00    -0.435 OA
ATOM     22  C   UNL     1      59.457 159.901  40.097  0.00  0.00    +0.029 C 
ATOM     23  C   UNL     1      59.703 160.311  38.667  0.00  0.00    +0.037 C 
ATOM     24  C   UNL     1      59.875 161.751  38.426  0.00  0.00    +0.038 C 
ATOM     25  C   UNL     1      59.239 161.944  37.063  0.00  0.00    +0.143 C 
ATOM     26  O   UNL     1      58.583 160.787  36.749  0.00  0.00    -0.354 OA
ATOM     27  C   UNL     1      58.531 159.933  37.790  0.00  0.00    +0.143 C 
ENDBRANCH   1  12
BRANCH   1  34
ATOM     28  N   UNL     1      61.414 165.098  38.367  0.00  0.00    -0.258 N 
ATOM     29  C   UNL     1      60.384 165.260  37.418  0.00  0.00    +0.193 C 
ATOM     30  N   UNL     1      60.577 166.312  36.450  0.00  0.00    -0.157 NA
ATOM     31  C   UNL     1      61.159 167.507  36.909  0.00  0.00    +0.123 C 
ATOM     32  C   UNL     1      62.283 167.384  37.878  0.00  0.00    +0.009 C 
ATOM     33  C   UNL     1      62.496 166.067  38.504  0.00  0.00    +0.064 C 
ATOM     34  C   UNL     1      61.498 163.984  39.214  0.00  0.00    +0.121 C 
ATOM     35  N   UNL     1      62.671 163.374  39.164  0.00  0.00    -0.287 NA
ATOM     36  H   UNL     1      62.836 162.580  39.720  0.00  0.00    +0.188 HD
BRANCH  30  37
ATOM     37  N   UNL     1      60.768 165.924  35.162  0.00  0.00    -0.107 N 
ATOM     38  C   UNL     1      59.851 166.290  34.150  0.00  0.00    +0.339 C 
ATOM     39  O   UNL     1      58.820 166.982  34.398  0.00  0.00    -0.262 OA
BRANCH  37  40
ATOM     40  N   UNL     1      61.881 165.157  34.809  0.00  0.00    -0.157 NA
ATOM     41  C   UNL     1      62.919 165.800  34.367  0.00  0.00    +0.142 C 
ENDBRANCH  37  40
ENDBRANCH  30  37
ENDBRANCH   1  34
BRANCH   9  42
ATOM     42  O   UNL     1      58.676 167.938  43.022  0.00  0.00    -0.503 OA
ATOM     43  H   UNL     1      57.813 168.275  42.879  0.00  0.00    +0.292 HD
ENDBRANCH   9  42
BRANCH   8  44
ATOM     44  O   UNL     1      58.088 167.599  40.305  0.00  0.00    -0.503 OA
ATOM     45  H   UNL     1      57.429 168.085  40.759  0.00  0.00    +0.292 HD
ENDBRANCH   8  44
TORSDOF 6
ENDMDL
