REMARK  Name = =
REMARK  6 active torsions:
REMARK  status: ('A' for Active; 'I' for Inactive)
REMARK    1  A    between atoms: C_1  and  C_11
REMARK    2  A    between atoms: C_1  and  C_33
REMARK    3  A    between atoms: C_8  and  O_41
REMARK    4  A    between atoms: C_9  and  O_40
REMARK    5  A    between atoms: N_29  and  N_35
REMARK    6  A    between atoms: N_35  and  N_38
REMARK                            x       y       z     vdW  Elec       q    Type
REMARK                         _______ _______ _______ _____ _____    ______ ____
ROOT
ATOM      1  C   UNL     1      61.351 165.434  39.238  0.00  0.00    +0.113 C 
ATOM      2  N   UNL     1      61.090 164.690  40.434  0.00  0.00    -0.290 NA
ATOM      3  C   UNL     1      61.027 163.280  40.334  0.00  0.00    +0.074 C 
ATOM      4  C   UNL     1      59.838 162.885  39.472  0.00  0.00    +0.043 C 
ATOM      5  C   UNL     1      60.143 163.507  38.131  0.00  0.00    -0.020 C 
ATOM      6  C   UNL     1      60.843 164.671  38.027  0.00  0.00    -0.003 C 
ATOM      7  C   UNL     1      61.082 165.205  36.795  0.00  0.00    +0.037 C 
ATOM      8  C   UNL     1      60.587 164.518  35.676  0.00  0.00    +0.167 C 
ATOM      9  C   UNL     1      59.878 163.341  35.777  0.00  0.00    +0.167 C 
ATOM     10  C   UNL     1      59.649 162.822  37.030  0.00  0.00    +0.035 C 
ATOM     11  H   UNL     1      60.194 165.009  40.801  0.00  0.00    +0.124 HD
ENDROOT
BRANCH   1  12
ATOM     12  C   UNL     1      62.841 165.695  39.100  0.00  0.00    +0.048 C 
ATOM     13  C   UNL     1      63.314 165.853  37.718  0.00  0.00    -0.021 C 
ATOM     14  C   UNL     1      63.879 164.776  37.016  0.00  0.00    -0.023 C 
ATOM     15  C   UNL     1      64.323 164.900  35.721  0.00  0.00    +0.036 C 
ATOM     16  C   UNL     1      64.226 166.106  35.061  0.00  0.00    +0.176 C 
ATOM     17  C   UNL     1      63.686 167.165  35.719  0.00  0.00    +0.176 C 
ATOM     18  C   UNL     1      63.242 167.031  37.021  0.00  0.00    +0.036 C 
ATOM     19  O   UNL     1      63.694 168.260  34.864  0.00  0.00    -0.435 OA
ATOM     20  C   UNL     1      64.574 167.999  33.774  0.00  0.00    +0.429 C 
ATOM     21  O   UNL     1      64.566 166.577  33.780  0.00  0.00    -0.435 OA
ATOM     22  C   UNL     1      64.020 163.486  37.691  0.00  0.00    +0.029 C 
ATOM     23  C   UNL     1      64.400 163.694  39.135  0.00  0.00    +0.037 C 
ATOM     24  C   UNL     1      63.604 164.680  39.879  0.00  0.00    +0.038 C 
ATOM     25  C   UNL     1      64.622 165.297  40.819  0.00  0.00    +0.143 C 
ATOM     26  O   UNL     1      65.857 164.863  40.427  0.00  0.00    -0.354 OA
ATOM     27  C   UNL     1      65.817 164.209  39.249  0.00  0.00    +0.143 C 
ENDBRANCH   1  12
BRANCH   1  34
ATOM     28  N   UNL     1      60.886 168.013  39.161  0.00  0.00    -0.258 N 
ATOM     29  C   UNL     1      61.819 168.609  40.033  0.00  0.00    +0.193 C 
ATOM     30  N   UNL     1      61.885 170.049  39.999  0.00  0.00    -0.157 NA
ATOM     31  C   UNL     1      61.764 170.667  38.741  0.00  0.00    +0.123 C 
ATOM     32  C   UNL     1      60.756 170.100  37.802  0.00  0.00    +0.009 C 
ATOM     33  C   UNL     1      60.191 168.780  38.133  0.00  0.00    +0.064 C 
ATOM     34  C   UNL     1      60.528 166.659  39.241  0.00  0.00    +0.121 C 
ATOM     35  N   UNL     1      59.222 166.466  39.327  0.00  0.00    -0.287 NA
ATOM     36  H   UNL     1      58.863 165.552  39.388  0.00  0.00    +0.188 HD
BRANCH  30  37
ATOM     37  N   UNL     1      61.459 170.703  41.111  0.00  0.00    -0.107 N 
ATOM     38  C   UNL     1      62.364 171.051  42.140  0.00  0.00    +0.339 C 
ATOM     39  O   UNL     1      63.596 170.766  42.074  0.00  0.00    -0.262 OA
BRANCH  37  40
ATOM     40  N   UNL     1      60.114 171.051  41.259  0.00  0.00    -0.157 NA
ATOM     41  C   UNL     1      59.387 170.278  42.007  0.00  0.00    +0.142 C 
ENDBRANCH  37  40
ENDBRANCH  30  37
ENDBRANCH   1  34
BRANCH   9  42
ATOM     42  O   UNL     1      59.391 162.664  34.676  0.00  0.00    -0.503 OA
ATOM     43  H   UNL     1      59.538 163.003  33.815  0.00  0.00    +0.292 HD
ENDBRANCH   9  42
BRANCH   8  44
ATOM     44  O   UNL     1      60.827 165.055  34.422  0.00  0.00    -0.503 OA
ATOM     45  H   UNL     1      60.509 164.618  33.657  0.00  0.00    +0.292 HD
ENDBRANCH   8  44
TORSDOF 6
