REMARK  Name = =
REMARK  0 active torsions:
REMARK  status: ('A' for Active; 'I' for Inactive)
REMARK                            x       y       z     vdW  Elec       q    Type
REMARK                         _______ _______ _______ _____ _____    ______ ____
ROOT
ATOM      1  N   UNL     1       1.657  -5.763  35.742  0.00  0.00    -0.206 N 
ATOM      2  N   UNL     1       1.258  -6.421  34.558  0.00  0.00    -0.182 NA
ATOM      3  C   UNL     1       1.826  -6.308  33.426  0.00  0.00    +0.092 C 
ATOM      4  C   UNL     1       2.999  -5.457  33.223  0.00  0.00    +0.058 C 
ATOM      5  C   UNL     1       2.992  -4.349  34.243  0.00  0.00    +0.093 C 
ATOM      6  C   UNL     1       2.809  -4.902  35.598  0.00  0.00    +0.241 C 
ATOM      7  O   UNL     1       3.551  -4.681  36.569  0.00  0.00    -0.273 OA
ATOM      8  H   UNL     1       1.187  -5.881  36.599  0.00  0.00    +0.177 HD
ENDROOT
TORSDOF 0
