REMARK  Name = =
REMARK  1 active torsions:
REMARK  status: ('A' for Active; 'I' for Inactive)
REMARK    1  A    between atoms: C_4  and  C_8
REMARK                            x       y       z     vdW  Elec       q    Type
REMARK                         _______ _______ _______ _____ _____    ______ ____
ROOT
ATOM      1  N   UNL     1       2.034  -5.644  34.317  0.00  0.00    -0.206 N 
ATOM      2  N   UNL     1       1.009  -6.592  34.554  0.00  0.00    -0.182 NA
ATOM      3  C   UNL     1       0.238  -6.980  33.606  0.00  0.00    +0.095 C 
ATOM      4  C   UNL     1       0.383  -6.459  32.230  0.00  0.00    +0.070 C 
ATOM      5  C   UNL     1       1.754  -5.976  31.890  0.00  0.00    +0.097 C 
ATOM      6  C   UNL     1       2.214  -5.114  33.009  0.00  0.00    +0.242 C 
ATOM      7  O   UNL     1       2.735  -3.983  32.874  0.00  0.00    -0.273 OA
ATOM      8  H   UNL     1       2.619  -5.353  35.054  0.00  0.00    +0.177 HD
ENDROOT
BRANCH   4   9
ATOM      9  C   UNL     1      -0.157  -7.421  31.226  0.00  0.00    -0.038 C 
ATOM     10  C   UNL     1       0.243  -7.461  29.957  0.00  0.00    -0.029 C 
ATOM     11  C   UNL     1      -0.326  -8.439  28.992  0.00  0.00    +0.051 C 
ATOM     12  C   UNL     1      -1.696  -8.873  29.360  0.00  0.00    -0.026 C 
ATOM     13  C   UNL     1      -2.083  -8.835  30.619  0.00  0.00    -0.026 C 
ATOM     14  C   UNL     1      -1.205  -8.369  31.728  0.00  0.00    +0.048 C 
ENDBRANCH   4   9
TORSDOF 1
