REMARK  Name = =
REMARK  2 active torsions:
REMARK  status: ('A' for Active; 'I' for Inactive)
REMARK    1  A    between atoms: C_4  and  N_8
REMARK    2  A    between atoms: C_4  and  C_17
REMARK                            x       y       z     vdW  Elec       q    Type
REMARK                         _______ _______ _______ _____ _____    ______ ____
ROOT
ATOM      1  N   UNL     1      -1.219  -8.471  32.051  0.00  0.00    -0.206 N 
ATOM      2  N   UNL     1      -0.480  -7.405  32.555  0.00  0.00    -0.180 NA
ATOM      3  C   UNL     1      -0.290  -6.364  31.872  0.00  0.00    +0.116 C 
ATOM      4  C   UNL     1      -0.775  -6.071  30.499  0.00  0.00    +0.139 C 
ATOM      5  C   UNL     1      -0.922  -7.424  29.837  0.00  0.00    +0.118 C 
ATOM      6  C   UNL     1      -1.735  -8.308  30.734  0.00  0.00    +0.244 C 
ATOM      7  O   UNL     1      -2.792  -8.876  30.384  0.00  0.00    -0.273 OA
ATOM      8  H   UNL     1      -1.376  -9.290  32.574  0.00  0.00    +0.177 HD
ENDROOT
BRANCH   4   9
ATOM      9  N   UNL     1      -2.022  -5.361  30.599  0.00  0.00    -0.229 N 
ATOM     10  C   UNL     1      -2.803  -5.416  31.698  0.00  0.00    +0.335 A 
ATOM     11  O   UNL     1      -2.445  -6.122  32.705  0.00  0.00    -0.246 OA
ATOM     12  N   UNL     1      -3.972  -4.772  31.834  0.00  0.00    -0.260 N 
ATOM     13  C   UNL     1      -4.418  -4.011  30.822  0.00  0.00    +0.332 A 
ATOM     14  O   UNL     1      -5.516  -3.419  30.980  0.00  0.00    -0.247 OA
ATOM     15  N   UNL     1      -3.667  -3.938  29.724  0.00  0.00    -0.260 N 
ATOM     16  C   UNL     1      -2.497  -4.586  29.591  0.00  0.00    +0.335 A 
ATOM     17  O   UNL     1      -1.820  -4.487  28.533  0.00  0.00    -0.246 OA
ATOM     18  H   UNL     1      -4.495  -4.856  32.664  0.00  0.00    +0.175 HD
ATOM     19  H   UNL     1      -3.984  -3.383  28.975  0.00  0.00    +0.175 HD
ENDBRANCH   4   9
BRANCH   4  20
ATOM     20  C   UNL     1       0.310  -5.344  29.808  0.00  0.00    -0.019 C 
ATOM     21  C   UNL     1       0.656  -4.090  30.085  0.00  0.00    -0.027 C 
ATOM     22  C   UNL     1       1.762  -3.484  29.312  0.00  0.00    +0.051 C 
ATOM     23  C   UNL     1       2.842  -4.474  29.072  0.00  0.00    -0.026 C 
ATOM     24  C   UNL     1       2.522  -5.729  28.798  0.00  0.00    -0.026 C 
ATOM     25  C   UNL     1       1.064  -6.095  28.743  0.00  0.00    +0.049 C 
ENDBRANCH   4  20
TORSDOF 2
