REMARK  Name = =
REMARK  7 active torsions:
REMARK  status: ('A' for Active; 'I' for Inactive)
REMARK    1  A    between atoms: C_2  and  C_10
REMARK    2  A    between atoms: C_3  and  O_9
REMARK    3  A    between atoms: C_4  and  O_8
REMARK    4  A    between atoms: C_5  and  O_7
REMARK    5  A    between atoms: N_11  and  N_12
REMARK    6  A    between atoms: N_12  and  C_13
REMARK    7  A    between atoms: C_13  and  N_15
REMARK                            x       y       z     vdW  Elec       q    Type
REMARK                         _______ _______ _______ _____ _____    ______ ____
ROOT
ATOM      1  C   UNL     1     -20.621 -43.502  27.301  0.00  0.00    +0.008 C 
ATOM      2  C   UNL     1     -20.217 -42.520  26.432  0.00  0.00    +0.058 C 
ATOM      3  C   UNL     1     -21.219 -41.709  25.887  0.00  0.00    +0.172 C 
ATOM      4  C   UNL     1     -22.548 -41.889  26.206  0.00  0.00    +0.202 C 
ATOM      5  C   UNL     1     -22.911 -42.907  27.099  0.00  0.00    +0.171 C 
ATOM      6  C   UNL     1     -21.944 -43.705  27.639  0.00  0.00    +0.040 C 
ENDROOT
BRANCH   5   7
ATOM      7  O   UNL     1     -24.270 -43.062  27.401  0.00  0.00    -0.503 OA
ATOM      8  H   UNL     1     -24.905 -42.494  27.010  0.00  0.00    +0.292 HD
ENDBRANCH   5   7
BRANCH   4   9
ATOM      9  O   UNL     1     -23.558 -41.103  25.682  0.00  0.00    -0.501 OA
ATOM     10  H   UNL     1     -23.352 -40.413  25.082  0.00  0.00    +0.292 HD
ENDBRANCH   4   9
BRANCH   3  11
ATOM     11  O   UNL     1     -20.841 -40.710  25.006  0.00  0.00    -0.503 OA
ATOM     12  H   UNL     1     -21.490 -40.151  24.625  0.00  0.00    +0.292 HD
ENDBRANCH   3  11
BRANCH   2  13
ATOM     13  C   UNL     1     -18.815 -42.312  26.079  0.00  0.00    +0.121 C 
ATOM     14  N   UNL     1     -18.424 -41.337  25.357  0.00  0.00    -0.178 NA
BRANCH  14  15
ATOM     15  N   UNL     1     -17.104 -41.134  25.021  0.00  0.00    -0.218 N 
ATOM     16  H   UNL     1     -16.587 -40.451  25.506  0.00  0.00    +0.176 HD
BRANCH  15  17
ATOM     17  C   UNL     1     -16.471 -41.877  24.000  0.00  0.00    +0.147 C 
ATOM     18  S   UNL     1     -14.857 -42.042  23.969  0.00  0.00    -0.017 S 
BRANCH  17  19
ATOM     19  N   UNL     1     -17.257 -42.480  23.000  0.00  0.00    -0.339 N 
ATOM     20  H   UNL     1     -18.236 -42.381  23.017  0.00  0.00    +0.144 HD
ATOM     21  H   UNL     1     -16.827 -43.001  22.283  0.00  0.00    +0.144 HD
ENDBRANCH  17  19
ENDBRANCH  15  17
ENDBRANCH  14  15
ENDBRANCH   2  13
TORSDOF 7
