MODEL 1
REMARK VINA RESULT:    -6.592      0.000      0.000
REMARK INTER + INTRA:          -9.908
REMARK INTER:                  -8.712
REMARK INTRA:                  -1.197
REMARK UNBOUND:                -1.197
REMARK  Name = =
REMARK  6 active torsions:
REMARK  status: ('A' for Active; 'I' for Inactive)
REMARK    1  A    between atoms: N_1  and  O_14
REMARK    2  A    between atoms: C_6  and  N_7
REMARK    3  A    between atoms: N_7  and  O_10
REMARK    4  A    between atoms: O_10  and  C_11
REMARK    5  A    between atoms: C_11  and  O_13
REMARK    6  A    between atoms: O_14  and  C_23
REMARK                            x       y       z     vdW  Elec       q    Type
REMARK                         _______ _______ _______ _____ _____    ______ ____
ROOT
ATOM      1  N   UNL     1      51.893 167.380  42.465  0.00  0.00    -0.095 NA
ATOM      2  C   UNL     1      51.746 168.841  42.545  0.00  0.00    +0.147 C 
ATOM      3  C   UNL     1      52.317 169.348  41.212  0.00  0.00    +0.163 C 
ATOM      4  O   UNL     1      53.631 168.962  41.100  0.00  0.00    -0.349 OA
ATOM      5  C   UNL     1      54.141 168.323  42.223  0.00  0.00    +0.185 C 
ATOM      6  C   UNL     1      53.321 167.151  42.676  0.00  0.00    +0.239 C 
ENDROOT
BRANCH   6   7
ATOM      7  N   UNL     1      53.792 165.936  42.063  0.00  0.00    -0.090 N 
ATOM      8  C   UNL     1      53.631 164.705  42.721  0.00  0.00    +0.338 C 
ATOM      9  O   UNL     1      54.027 163.623  42.226  0.00  0.00    -0.262 OA
BRANCH   7  10
ATOM     10  O   UNL     1      54.396 165.993  40.841  0.00  0.00    -0.309 OA
BRANCH  10  11
ATOM     11  C   UNL     1      53.749 165.893  39.639  0.00  0.00    +0.531 C 
ATOM     12  O   UNL     1      53.417 164.742  39.220  0.00  0.00    -0.201 OA
BRANCH  11  13
ATOM     13  O   UNL     1      53.430 167.004  38.838  0.00  0.00    -0.448 OA
ATOM     14  H   UNL     1      52.894 167.692  39.183  0.00  0.00    +0.299 HD
ENDBRANCH  11  13
ENDBRANCH  10  11
ENDBRANCH   7  10
ENDBRANCH   6   7
BRANCH   1  15
ATOM     15  O   UNL     1      51.442 166.945  41.266  0.00  0.00    -0.400 OA
BRANCH  15  24
ATOM     16  C   UNL     1      46.862 163.707  40.883  0.00  0.00    +0.026 C 
ATOM     17  C   UNL     1      46.920 162.456  41.718  0.00  0.00    +0.005 C 
ATOM     18  C   UNL     1      48.303 162.081  42.175  0.00  0.00    +0.005 C 
ATOM     19  C   UNL     1      49.310 162.474  41.087  0.00  0.00    +0.026 C 
ATOM     20  C   UNL     1      49.294 163.963  41.085  0.00  0.00    -0.023 C 
ATOM     21  C   UNL     1      48.056 164.559  40.989  0.00  0.00    -0.026 C 
ATOM     22  C   UNL     1      47.923 165.951  40.984  0.00  0.00    -0.001 C 
ATOM     23  C   UNL     1      49.072 166.688  41.078  0.00  0.00    +0.039 C 
ATOM     24  C   UNL     1      50.346 166.136  41.176  0.00  0.00    +0.165 C 
ATOM     25  C   UNL     1      50.396 164.759  41.175  0.00  0.00    +0.035 C 
ENDBRANCH  15  24
ENDBRANCH   1  15
TORSDOF 6
ENDMDL
