REMARK  Name = =
REMARK  9 active torsions:
REMARK  status: ('A' for Active; 'I' for Inactive)
REMARK    1  A    between atoms: N_1  and  S_12
REMARK    2  A    between atoms: N_1  and  C_24
REMARK    3  A    between atoms: C_2  and  C_4
REMARK    4  A    between atoms: N_6  and  O_7
REMARK    5  A    between atoms: O_7  and  P_8
REMARK    6  A    between atoms: P_8  and  N_10
REMARK    7  A    between atoms: P_8  and  O_11
REMARK    8  A    between atoms: S_12  and  C_15
REMARK    9  A    between atoms: C_24  and  O_25
REMARK                            x       y       z     vdW  Elec       q    Type
REMARK                         _______ _______ _______ _____ _____    ______ ____
ROOT
ATOM      1  N   UNL     1       1.023  -8.071  28.154  0.00  0.00    -0.168 N 
ATOM      2  C   UNL     1       2.004  -8.920  27.599  0.00  0.00    +0.318 C 
ATOM      3  O   UNL     1       3.233  -8.550  27.717  0.00  0.00    -0.264 OA
ENDROOT
BRANCH   2   4
ATOM      4  C   UNL     1       1.742 -10.176  26.904  0.00  0.00    +0.323 C 
ATOM      5  O   UNL     1       0.612 -10.631  26.627  0.00  0.00    -0.263 OA
ATOM      6  N   UNL     1       2.835 -11.017  26.469  0.00  0.00    -0.177 N 
ATOM      7  H   UNL     1       3.758 -10.726  26.651  0.00  0.00    +0.183 HD
BRANCH   6   8
ATOM      8  O   UNL     1       2.639 -12.173  25.830  0.00  0.00    -0.185 OA
BRANCH   8   9
ATOM      9  P   UNL     1       2.473 -12.059  24.182  0.00  0.00    +0.422 P 
ATOM     10  O   UNL     1       3.250 -10.878  23.594  0.00  0.00    -0.238 OA
BRANCH   9  11
ATOM     11  N   UNL     1       3.039 -13.485  23.340  0.00  0.00    -0.235 NA
ATOM     12  H   UNL     1       4.021 -13.645  23.565  0.00  0.00    +0.130 HD
ATOM     13  H   UNL     1       2.939 -13.348  22.334  0.00  0.00    +0.130 HD
ENDBRANCH   9  11
BRANCH   9  14
ATOM     14  O   UNL     1       0.845 -11.782  23.817  0.00  0.00    -0.311 OA
ATOM     15  H   UNL     1       0.538 -10.991  24.287  0.00  0.00    +0.221 HD
ENDBRANCH   9  14
ENDBRANCH   8   9
ENDBRANCH   6   8
ENDBRANCH   2   4
BRANCH   1  16
ATOM     16  S   UNL     1       1.518  -6.595  28.920  0.00  0.00    +0.170 S 
ATOM     17  O   UNL     1       1.593  -6.635  30.404  0.00  0.00    -0.230 OA
BRANCH  16  19
ATOM     18  C   UNL     1      -0.321  -4.585  28.424  0.00  0.00    +0.028 C 
ATOM     19  C   UNL     1       0.920  -5.139  28.195  0.00  0.00    +0.155 C 
ATOM     20  N   UNL     1       1.732  -4.494  27.320  0.00  0.00    -0.234 NA
ATOM     21  C   UNL     1       1.373  -3.381  26.703  0.00  0.00    +0.100 C 
ATOM     22  C   UNL     1       0.149  -2.822  26.918  0.00  0.00    +0.021 C 
ATOM     23  C   UNL     1      -0.721  -3.420  27.787  0.00  0.00    +0.004 C 
ATOM     24  C   UNL     1      -1.963  -2.918  28.058  0.00  0.00    +0.000 C 
ATOM     25  C   UNL     1      -2.846  -3.510  28.936  0.00  0.00    +0.000 C 
ATOM     26  C   UNL     1      -2.402  -4.665  29.543  0.00  0.00    +0.000 C 
ATOM     27  C   UNL     1      -1.159  -5.221  29.310  0.00  0.00    +0.002 C 
ENDBRANCH  16  19
ENDBRANCH   1  16
BRANCH   1  28
ATOM     28  C   UNL     1      -0.381  -8.387  28.123  0.00  0.00    +0.252 C 
BRANCH  28  29
ATOM     29  O   UNL     1      -0.966  -8.071  26.899  0.00  0.00    -0.363 OA
ATOM     30  H   UNL     1      -1.908  -8.299  26.922  0.00  0.00    +0.212 HD
ENDBRANCH  28  29
ENDBRANCH   1  28
TORSDOF 9
