REMARK  Name = =
REMARK  11 active torsions:
REMARK  status: ('A' for Active; 'I' for Inactive)
REMARK    1  A    between atoms: C_1  and  C_5
REMARK    2  A    between atoms: N_3  and  O_21
REMARK    3  A    between atoms: N_4  and  S_7
REMARK    4  A    between atoms: N_4  and  C_19
REMARK    5  A    between atoms: S_7  and  C_10
REMARK    6  A    between atoms: C_19  and  O_20
REMARK    7  A    between atoms: O_21  and  P_22
REMARK    8  A    between atoms: P_22  and  C_24
REMARK    9  A    between atoms: P_22  and  N_28
REMARK   10  A    between atoms: O_23  and  O_29
REMARK   11  A    between atoms: N_26  and  N_27
REMARK                            x       y       z     vdW  Elec       q    Type
REMARK                         _______ _______ _______ _____ _____    ______ ____
ROOT
ATOM      1  N   UNL     1       1.671  -7.669  26.515  0.00  0.00    -0.168 N 
ATOM      2  C   UNL     1       0.579  -7.055  27.162  0.00  0.00    +0.318 C 
ATOM      3  O   UNL     1      -0.200  -7.825  27.812  0.00  0.00    -0.264 OA
ENDROOT
BRANCH   2   4
ATOM      4  C   UNL     1       0.253  -5.656  27.164  0.00  0.00    +0.323 C 
ATOM      5  O   UNL     1       0.907  -4.837  26.468  0.00  0.00    -0.263 OA
ATOM      6  N   UNL     1      -0.823  -5.147  27.958  0.00  0.00    -0.181 N 
ATOM      7  H   UNL     1      -1.357  -5.755  28.519  0.00  0.00    +0.183 HD
BRANCH   6   8
ATOM      8  O   UNL     1      -1.096  -3.844  27.931  0.00  0.00    -0.232 OA
BRANCH   8   9
ATOM      9  P   UNL     1      -1.377  -3.348  29.529  0.00  0.00    +0.221 P 
BRANCH   9  10
ATOM     10  C   UNL     1      -2.736  -4.453  29.755  0.00  0.00    +0.293 C 
ATOM     11  O   UNL     1      -3.822  -4.141  29.183  0.00  0.00    -0.265 OA
ATOM     12  N   UNL     1      -2.704  -5.653  30.519  0.00  0.00    -0.247 N 
ATOM     13  H   UNL     1      -1.866  -5.906  30.970  0.00  0.00    +0.169 HD
BRANCH  12  14
ATOM     14  N   UNL     1      -3.837  -6.501  30.656  0.00  0.00    -0.254 NA
ATOM     15  H   UNL     1      -4.621  -6.107  30.136  0.00  0.00    +0.140 HD
ATOM     16  H   UNL     1      -4.087  -6.577  31.642  0.00  0.00    +0.140 HD
ENDBRANCH  12  14
ENDBRANCH   9  10
BRANCH   9  17
ATOM     17  N   UNL     1      -1.978  -2.090  28.461  0.00  0.00    -0.279 NA
ATOM     18  H   UNL     1      -1.238  -1.410  28.286  0.00  0.00    +0.125 HD
ATOM     19  H   UNL     1      -2.772  -1.623  28.899  0.00  0.00    +0.125 HD
ENDBRANCH   9  17
ENDBRANCH   8   9
ENDBRANCH   6   8
ENDBRANCH   2   4
BRANCH   1  20
ATOM     20  S   UNL     1       1.886  -9.422  26.579  0.00  0.00    +0.170 S 
ATOM     21  O   UNL     1       1.184 -10.022  27.780  0.00  0.00    -0.230 OA
BRANCH  20  23
ATOM     22  C   UNL     1       4.267 -10.116  25.347  0.00  0.00    +0.028 C 
ATOM     23  C   UNL     1       3.599  -9.778  26.526  0.00  0.00    +0.155 C 
ATOM     24  N   UNL     1       4.312  -9.715  27.675  0.00  0.00    -0.234 NA
ATOM     25  C   UNL     1       5.626  -9.968  27.697  0.00  0.00    +0.100 C 
ATOM     26  C   UNL     1       6.302 -10.304  26.538  0.00  0.00    +0.021 C 
ATOM     27  C   UNL     1       5.629 -10.382  25.344  0.00  0.00    +0.004 C 
ATOM     28  C   UNL     1       6.308 -10.723  24.194  0.00  0.00    +0.000 C 
ATOM     29  C   UNL     1       5.613 -10.801  23.007  0.00  0.00    +0.000 C 
ATOM     30  C   UNL     1       4.248 -10.535  23.009  0.00  0.00    +0.000 C 
ATOM     31  C   UNL     1       3.578 -10.197  24.156  0.00  0.00    +0.002 C 
ENDBRANCH  20  23
ENDBRANCH   1  20
BRANCH   1  32
ATOM     32  C   UNL     1       2.653  -6.926  25.806  0.00  0.00    +0.252 C 
BRANCH  32  33
ATOM     33  O   UNL     1       2.319  -6.766  24.458  0.00  0.00    -0.363 OA
ATOM     34  H   UNL     1       3.012  -6.255  24.011  0.00  0.00    +0.212 HD
ENDBRANCH  32  33
ENDBRANCH   1  32
TORSDOF 10
REMARK  Name = =
REMARK  11 active torsions:
REMARK  status: ('A' for Active; 'I' for Inactive)
REMARK    1  A    between atoms: C_1  and  C_5
REMARK    2  A    between atoms: N_3  and  O_21
REMARK    3  A    between atoms: N_4  and  S_7
REMARK    4  A    between atoms: N_4  and  C_19
REMARK    5  A    between atoms: S_7  and  C_10
REMARK    6  A    between atoms: C_19  and  O_20
REMARK    7  A    between atoms: O_21  and  P_22
REMARK    8  A    between atoms: P_22  and  C_24
REMARK    9  A    between atoms: P_22  and  N_28
REMARK   10  A    between atoms: O_23  and  O_29
REMARK   11  A    between atoms: N_26  and  N_27
REMARK                            x       y       z     vdW  Elec       q    Type
REMARK                         _______ _______ _______ _____ _____    ______ ____
ROOT
ATOM      1  O   UNL     1      -1.509  -3.282  31.034  0.00  0.00    -0.253 OA
ATOM      2  H   UNL     1      -1.618  -3.756  31.873  0.00  0.00    +0.253 HD
ENDROOT
BRANCH   1   3
ATOM      3  O   UNL     1      -0.069  -3.446  30.539  0.00  0.00    -0.253 OA
ATOM      4  H   UNL     1       0.040  -2.972  29.700  0.00  0.00    +0.253 HD
ENDBRANCH   1   3
TORSDOF 1
