REMARK  Name = =
REMARK  0 active torsions:
REMARK  status: ('A' for Active; 'I' for Inactive)
REMARK                            x       y       z     vdW  Elec       q    Type
REMARK                         _______ _______ _______ _____ _____    ______ ____
ROOT
ATOM      1  C   UNL     1      -3.884  -3.743  31.082  0.00  0.00    +0.000 C 
ATOM      2  C   UNL     1      -3.940  -5.015  31.941  0.00  0.00    +0.000 C 
ATOM      3  C   UNL     1      -2.732  -5.731  31.550  0.00  0.00    +0.004 C 
ATOM      4  C   UNL     1      -2.732  -7.204  31.444  0.00  0.00    +0.022 C 
ATOM      5  C   UNL     1      -1.633  -7.401  30.449  0.00  0.00    -0.044 C 
ATOM      6  C   UNL     1      -0.985  -8.538  30.272  0.00  0.00    -0.009 C 
ATOM      7  C   UNL     1      -1.413  -6.105  29.717  0.00  0.00    +0.022 C 
ATOM      8  C   UNL     1      -2.688  -5.410  30.035  0.00  0.00    +0.004 C 
ATOM      9  C   UNL     1      -2.686  -3.940  30.137  0.00  0.00    +0.000 C 
ENDROOT
TORSDOF 0
