REMARK  Name = =
REMARK  8 active torsions:
REMARK  status: ('A' for Active; 'I' for Inactive)
REMARK    1  A    between atoms: C_1  and  C_5
REMARK    2  A    between atoms: N_3  and  C_18
REMARK    3  A    between atoms: N_3  and  N_24
REMARK    4  A    between atoms: C_4  and  O_13
REMARK    5  A    between atoms: C_8  and  O_12
REMARK    6  A    between atoms: O_13  and  S_14
REMARK    7  A    between atoms: S_14  and  O_17
REMARK    8  A    between atoms: C_27  and  C_29
REMARK                            x       y       z     vdW  Elec       q    Type
REMARK                         _______ _______ _______ _____ _____    ______ ____
ROOT
ATOM      1  C   UNL     1      52.451 153.723  26.598  0.00  0.00    +0.273 C 
ATOM      2  O   UNL     1      52.819 153.785  25.350  0.00  0.00    -0.268 OA
ATOM      3  N   UNL     1      52.465 154.967  27.311  0.00  0.00    -0.194 N 
ENDROOT
BRANCH   1   5
ATOM      4  C   UNL     1      52.306 151.371  26.212  0.00  0.00    +0.220 C 
ATOM      5  C   UNL     1      52.090 152.412  27.078  0.00  0.00    +0.137 C 
ATOM      6  C   UNL     1      51.590 152.116  28.400  0.00  0.00    +0.237 C 
ATOM      7  O   UNL     1      51.380 153.029  29.246  0.00  0.00    -0.283 OA
ATOM      8  C   UNL     1      51.292 150.740  28.868  0.00  0.00    +0.176 C 
ATOM      9  C   UNL     1      51.507 149.763  28.011  0.00  0.00    +0.085 C 
ATOM     10  C   UNL     1      52.015 150.040  26.675  0.00  0.00    +0.236 C 
ATOM     11  O   UNL     1      52.219 149.087  25.861  0.00  0.00    -0.283 OA
BRANCH   8  12
ATOM     12  O   UNL     1      50.809 150.532  30.156  0.00  0.00    -0.503 OA
ATOM     13  H   UNL     1      50.673 151.261  30.729  0.00  0.00    +0.292 HD
ENDBRANCH   8  12
BRANCH   4  14
ATOM     14  O   UNL     1      52.786 151.646  24.944  0.00  0.00    -0.337 OA
BRANCH  14  15
ATOM     15  S   UNL     1      54.444 151.531  24.605  0.00  0.00    +0.146 S 
ATOM     16  O   UNL     1      54.707 152.361  23.381  0.00  0.00    -0.035 OA
ATOM     17  O   UNL     1      55.306 152.048  25.698  0.00  0.00    -0.035 OA
BRANCH  15  18
ATOM     18  O   UNL     1      54.746 149.893  24.278  0.00  0.00    -0.241 OA
ATOM     19  H   UNL     1      54.573 149.367  25.074  0.00  0.00    +0.246 HD
ENDBRANCH  15  18
ENDBRANCH  14  15
ENDBRANCH   4  14
ENDBRANCH   1   5
BRANCH   3  20
ATOM     20  C   UNL     1      53.223 156.003  26.653  0.00  0.00    +0.070 C 
ATOM     21  C   UNL     1      53.896 156.932  27.349  0.00  0.00    +0.016 C 
ATOM     22  C   UNL     1      54.646 157.886  26.674  0.00  0.00    +0.001 C 
ATOM     23  C   UNL     1      54.689 157.865  25.294  0.00  0.00    +0.000 C 
ATOM     24  C   UNL     1      54.005 156.922  24.569  0.00  0.00    +0.001 C 
ATOM     25  C   UNL     1      53.270 155.989  25.275  0.00  0.00    +0.016 C 
ENDBRANCH   3  20
BRANCH   3  26
ATOM     26  N   UNL     1      51.746 155.164  28.437  0.00  0.00    -0.180 NA
ATOM     27  C   UNL     1      50.313 155.402  28.142  0.00  0.00    +0.164 C 
ATOM     28  N   UNL     1      50.228 156.825  27.994  0.00  0.00    -0.279 NA
ATOM     29  C   UNL     1      51.263 157.399  28.838  0.00  0.00    +0.097 C 
ATOM     30  C   UNL     1      52.101 156.229  29.318  0.00  0.00    +0.114 C 
ATOM     31  H   UNL     1      49.310 157.155  28.292  0.00  0.00    +0.125 HD
BRANCH  29  32
ATOM     32  C   UNL     1      50.678 158.156  29.969  0.00  0.00    +0.013 C 
ATOM     33  C   UNL     1      49.685 157.661  30.795  0.00  0.00    +0.098 C 
ATOM     34  N   UNL     1      49.148 158.400  31.784  0.00  0.00    -0.225 NA
ATOM     35  C   UNL     1      49.545 159.663  32.029  0.00  0.00    +0.165 C 
ATOM     36  N   UNL     1      49.018 160.416  33.009  0.00  0.00    -0.205 NA
ATOM     37  C   UNL     1      49.418 161.686  33.243  0.00  0.00    +0.200 C 
ATOM     38  N   UNL     1      50.377 162.224  32.476  0.00  0.00    -0.222 NA
ATOM     39  C   UNL     1      50.928 161.507  31.492  0.00  0.00    +0.104 C 
ATOM     40  C   UNL     1      50.525 160.211  31.246  0.00  0.00    +0.055 C 
ATOM     41  C   UNL     1      51.086 159.455  30.222  0.00  0.00    +0.003 C 
ENDBRANCH  29  32
ENDBRANCH   3  26
TORSDOF 8
