MODEL 1
REMARK VINA RESULT:    -9.709      0.000      0.000
REMARK INTER + INTRA:         -12.806
REMARK INTER:                 -11.980
REMARK INTRA:                  -0.826
REMARK UNBOUND:                -0.826
REMARK  Name = =
REMARK  4 active torsions:
REMARK  status: ('A' for Active; 'I' for Inactive)
REMARK    1  A    between atoms: C_1  and  C_19
REMARK    2  A    between atoms: C_8  and  O_36
REMARK    3  A    between atoms: C_18  and  C_30
REMARK    4  A    between atoms: O_36  and  S_37
REMARK                            x       y       z     vdW  Elec       q    Type
REMARK                         _______ _______ _______ _____ _____    ______ ____
ROOT
ATOM      1  C   UNL     1       1.574  -8.038  26.501  0.00  0.00    +0.020 C 
ATOM      2  C   UNL     1       1.197  -8.412  27.940  0.00  0.00    +0.001 C 
ATOM      3  C   UNL     1       0.678  -7.160  28.538  0.00  0.00    +0.000 C 
ATOM      4  C   UNL     1      -0.326  -7.289  29.594  0.00  0.00    +0.003 C 
ATOM      5  C   UNL     1      -1.279  -8.421  29.495  0.00  0.00    +0.000 C 
ATOM      6  C   UNL     1      -2.057  -8.537  30.760  0.00  0.00    +0.003 C 
ATOM      7  C   UNL     1      -1.657  -7.589  31.827  0.00  0.00    +0.037 C 
ATOM      8  C   UNL     1      -1.485  -6.176  31.400  0.00  0.00    +0.143 C 
ATOM      9  C   UNL     1      -1.068  -6.044  29.935  0.00  0.00    +0.032 C 
ATOM     10  C   UNL     1      -2.538  -7.684  33.018  0.00  0.00    +0.067 C 
ATOM     11  C   UNL     1      -3.962  -7.508  32.685  0.00  0.00    +0.151 C 
ATOM     12  O   UNL     1      -4.728  -7.108  33.544  0.00  0.00    -0.296 OA
ATOM     13  C   UNL     1      -4.406  -7.826  31.306  0.00  0.00    +0.065 C 
ATOM     14  C   UNL     1      -3.504  -8.772  30.596  0.00  0.00    +0.008 C 
ATOM     15  C   UNL     1      -0.620  -9.699  29.101  0.00  0.00    +0.000 C 
ATOM     16  C   UNL     1       0.184  -9.518  27.836  0.00  0.00    +0.000 C 
ATOM     17  C   UNL     1       0.344  -6.211  27.423  0.00  0.00    +0.006 C 
ATOM     18  C   UNL     1       1.474  -6.538  26.438  0.00  0.00    +0.043 C 
ENDROOT
BRANCH   1  19
ATOM     19  C   UNL     1       2.920  -8.554  26.105  0.00  0.00    +0.124 C 
ATOM     20  C   UNL     1       3.337  -9.718  26.943  0.00  0.00    +0.180 C 
ATOM     21  O   UNL     1       4.052  -9.642  27.990  0.00  0.00    -0.291 OA
ATOM     22  C   UNL     1       2.786 -10.933  26.358  0.00  0.00    +0.038 C 
ATOM     23  C   UNL     1       2.458 -10.609  25.046  0.00  0.00    +0.038 C 
ATOM     24  C   UNL     1       1.910 -11.595  24.259  0.00  0.00    +0.003 C 
ATOM     25  C   UNL     1       1.696 -12.862  24.760  0.00  0.00    +0.000 C 
ATOM     26  C   UNL     1       2.020 -13.186  26.059  0.00  0.00    +0.000 C 
ATOM     27  C   UNL     1       2.571 -12.214  26.867  0.00  0.00    +0.003 C 
ATOM     28  C   UNL     1       2.776  -9.223  24.763  0.00  0.00    +0.180 C 
ATOM     29  O   UNL     1       2.920  -8.636  23.671  0.00  0.00    -0.291 OA
ENDBRANCH   1  19
BRANCH  18  30
ATOM     30  C   UNL     1       2.704  -5.822  26.765  0.00  0.00    +0.080 C 
ATOM     31  N   UNL     1       3.564  -5.456  25.797  0.00  0.00    -0.152 NA
ATOM     32  N   UNL     1       4.693  -4.806  26.022  0.00  0.00    -0.147 NA
ATOM     33  C   UNL     1       5.055  -4.466  27.267  0.00  0.00    +0.122 C 
ATOM     34  C   UNL     1       4.249  -4.792  28.331  0.00  0.00    +0.024 C 
ATOM     35  C   UNL     1       3.069  -5.477  28.052  0.00  0.00    +0.018 C 
ENDBRANCH  18  30
BRANCH   8  36
ATOM     36  O   UNL     1      -2.570  -5.394  31.708  0.00  0.00    -0.247 OA
BRANCH  36  37
ATOM     37  S   UNL     1      -2.891  -4.217  30.567  0.00  0.00    -0.029 S 
ATOM     38  O   UNL     1      -3.018  -2.864  31.198  0.00  0.00    -0.075 OA
ATOM     39  O   UNL     1      -4.234  -4.540  29.958  0.00  0.00    -0.075 OA
ATOM     40  H   UNL     1      -1.878  -4.198  29.659  0.00  0.00    +0.215 HD
ENDBRANCH  36  37
ENDBRANCH   8  36
TORSDOF 4
ENDMDL
