REMARK  Name = =
REMARK  0 active torsions:
REMARK  status: ('A' for Active; 'I' for Inactive)
REMARK                            x       y       z     vdW  Elec       q    Type
REMARK                         _______ _______ _______ _____ _____    ______ ____
ROOT
ATOM      1  C   UNL     1      -4.303  -4.274  30.681  0.00  0.00    +0.032 C 
ATOM      2  C   UNL     1      -3.872  -2.829  30.824  0.00  0.00    +0.032 C 
ATOM      3  C   UNL     1      -2.860  -2.674  29.707  0.00  0.00    +0.115 C 
ATOM      4  O   UNL     1      -3.280  -3.660  28.781  0.00  0.00    -0.359 OA
ATOM      5  C   UNL     1      -3.292  -4.781  29.647  0.00  0.00    +0.115 C 
ATOM      6  C   UNL     1      -1.888  -4.749  30.216  0.00  0.00    +0.032 C 
ATOM      7  C   UNL     1      -1.509  -3.275  30.099  0.00  0.00    +0.032 C 
ENDROOT
TORSDOF 0
