REMARK  Name = =
REMARK  0 active torsions:
REMARK  status: ('A' for Active; 'I' for Inactive)
REMARK                            x       y       z     vdW  Elec       q    Type
REMARK                         _______ _______ _______ _____ _____    ______ ____
ROOT
ATOM      1  C   UNL     1      -1.973  -7.676  33.254  0.00  0.00    +0.059 C 
ATOM      2  C   UNL     1      -3.324  -7.389  32.671  0.00  0.00    +0.155 C 
ATOM      3  O   UNL     1      -3.734  -7.994  31.508  0.00  0.00    -0.345 OA
ATOM      4  C   UNL     1      -3.515  -6.597  31.578  0.00  0.00    +0.203 C 
ATOM      5  C   UNL     1      -2.270  -6.138  30.891  0.00  0.00    +0.202 C 
ATOM      6  O   UNL     1      -2.319  -5.146  30.119  0.00  0.00    -0.289 OA
ATOM      7  C   UNL     1      -1.058  -6.890  31.173  0.00  0.00    +0.036 C 
ATOM      8  C   UNL     1      -0.876  -7.621  32.260  0.00  0.00    -0.021 C 
ENDROOT
TORSDOF 0
