REMARK  Name = =
REMARK  0 active torsions:
REMARK  status: ('A' for Active; 'I' for Inactive)
REMARK                            x       y       z     vdW  Elec       q    Type
REMARK                         _______ _______ _______ _____ _____    ______ ____
ROOT
ATOM      1  C   UNL     1      -2.293  -7.639  33.190  0.00  0.00    +0.059 C 
ATOM      2  C   UNL     1      -3.751  -7.408  32.993  0.00  0.00    +0.155 C 
ATOM      3  O   UNL     1      -4.421  -7.778  31.855  0.00  0.00    -0.345 OA
ATOM      4  C   UNL     1      -4.111  -6.326  32.120  0.00  0.00    +0.203 C 
ATOM      5  C   UNL     1      -3.065  -5.799  31.230  0.00  0.00    +0.202 C 
ATOM      6  O   UNL     1      -3.282  -4.723  30.622  0.00  0.00    -0.289 OA
ATOM      7  C   UNL     1      -1.807  -6.512  31.062  0.00  0.00    +0.036 C 
ATOM      8  C   UNL     1      -1.462  -7.373  31.995  0.00  0.00    -0.021 C 
ENDROOT
TORSDOF 0
REMARK  Name = =
REMARK  0 active torsions:
REMARK  status: ('A' for Active; 'I' for Inactive)
REMARK                            x       y       z     vdW  Elec       q    Type
REMARK                         _______ _______ _______ _____ _____    ______ ____
ROOT
ATOM      1  I   UNL     1      -0.603  -6.145  29.363  0.00  0.00    -0.107 I 
ATOM      2  H   UNL     1       0.958  -6.145  29.363  0.00  0.00    +0.107 HD
ENDROOT
TORSDOF 0
REMARK  Name = =
REMARK  0 active torsions:
REMARK  status: ('A' for Active; 'I' for Inactive)
REMARK                            x       y       z     vdW  Elec       q    Type
REMARK                         _______ _______ _______ _____ _____    ______ ____
ROOT
ATOM      1  C   UNL     1      -0.981  -7.799  28.137  0.00  0.00    +0.000 C 
ATOM      2  C   UNL     1      -0.090  -8.755  27.962  0.00  0.00    +0.000 C 
ENDROOT
TORSDOF 0
