REMARK  Name = =
REMARK  3 active torsions:
REMARK  status: ('A' for Active; 'I' for Inactive)
REMARK    1  A    between atoms: C_1  and  N_8
REMARK    2  A    between atoms: N_8  and  C_10
REMARK    3  A    between atoms: C_10  and  C_11
REMARK                            x       y       z     vdW  Elec       q    Type
REMARK                         _______ _______ _______ _____ _____    ______ ____
ROOT
ATOM      1  C   UNL     1      -2.449  -5.407  30.564  0.00  0.00    +0.088 C 
ATOM      2  C   UNL     1      -1.982  -4.010  30.441  0.00  0.00    +0.048 C 
ATOM      3  C   UNL     1      -3.332  -3.312  30.143  0.00  0.00    +0.117 C 
ATOM      4  O   UNL     1      -4.233  -4.358  29.845  0.00  0.00    -0.357 OA
ATOM      5  C   UNL     1      -3.889  -5.251  30.907  0.00  0.00    +0.130 C 
ATOM      6  C   UNL     1      -4.156  -4.319  32.064  0.00  0.00    +0.033 C 
ATOM      7  C   UNL     1      -3.885  -2.927  31.519  0.00  0.00    +0.032 C 
ENDROOT
BRANCH   1   8
ATOM      8  N   UNL     1      -1.678  -6.309  31.373  0.00  0.00    -0.265 NA
ATOM      9  C   UNL     1      -2.526  -7.449  31.761  0.00  0.00    +0.090 C 
BRANCH   8  10
ATOM     10  C   UNL     1      -0.646  -6.866  30.534  0.00  0.00    +0.119 C 
BRANCH  10  11
ATOM     11  C   UNL     1       0.743  -6.520  30.898  0.00  0.00    +0.080 C 
ATOM     12  N   UNL     1       1.644  -6.646  29.973  0.00  0.00    -0.300 NA
ATOM     13  H   UNL     1       2.584  -6.427  30.168  0.00  0.00    +0.186 HD
ENDBRANCH  10  11
ENDBRANCH   8  10
ENDBRANCH   1   8
TORSDOF 3
