REMARK  Name = =
REMARK  1 active torsions:
REMARK  status: ('A' for Active; 'I' for Inactive)
REMARK    1  A    between atoms: C_1  and  N_9
REMARK                            x       y       z     vdW  Elec       q    Type
REMARK                         _______ _______ _______ _____ _____    ______ ____
ROOT
ATOM      1  C   UNL     1      -2.124  -7.706  31.431  0.00  0.00    +0.111 C 
ATOM      2  C   UNL     1      -2.878  -6.465  31.061  0.00  0.00    +0.169 C 
ATOM      3  O   UNL     1      -2.250  -5.220  31.240  0.00  0.00    -0.344 OA
ATOM      4  C   UNL     1      -2.551  -5.755  29.972  0.00  0.00    +0.205 C 
ATOM      5  C   UNL     1      -1.366  -6.207  29.185  0.00  0.00    +0.202 C 
ATOM      6  O   UNL     1      -1.250  -5.866  27.965  0.00  0.00    -0.289 OA
ATOM      7  C   UNL     1      -0.371  -7.030  29.848  0.00  0.00    +0.037 C 
ATOM      8  C   UNL     1      -0.732  -7.745  30.923  0.00  0.00    -0.005 C 
ENDROOT
BRANCH   1   9
ATOM      9  N   UNL     1      -2.209  -8.032  32.822  0.00  0.00    -0.264 NA
ATOM     10  C   UNL     1      -3.518  -8.498  33.200  0.00  0.00    +0.077 C 
ATOM     11  C   UNL     1      -4.546  -7.430  33.370  0.00  0.00    +0.043 C 
ATOM     12  C   UNL     1      -4.044  -6.172  33.941  0.00  0.00    -0.028 C 
ATOM     13  C   UNL     1      -2.752  -5.998  34.064  0.00  0.00    -0.013 C 
ATOM     14  C   UNL     1      -1.726  -6.965  33.676  0.00  0.00    +0.099 C 
ENDBRANCH   1   9
TORSDOF 1
REMARK  Name = =
REMARK  1 active torsions:
REMARK  status: ('A' for Active; 'I' for Inactive)
REMARK    1  A    between atoms: C_1  and  N_9
REMARK                            x       y       z     vdW  Elec       q    Type
REMARK                         _______ _______ _______ _____ _____    ______ ____
ROOT
ATOM      1  I   UNL     1       1.580  -7.098  29.076  0.00  0.00    -0.107 I 
ATOM      2  H   UNL     1       3.141  -7.098  29.076  0.00  0.00    +0.107 HD
ENDROOT
TORSDOF 0
REMARK  Name = =
REMARK  1 active torsions:
REMARK  status: ('A' for Active; 'I' for Inactive)
REMARK    1  A    between atoms: C_1  and  N_9
REMARK                            x       y       z     vdW  Elec       q    Type
REMARK                         _______ _______ _______ _____ _____    ______ ____
ROOT
ATOM      1  C   UNL     1       2.140  -5.084  28.860  0.00  0.00    +0.000 C 
ATOM      2  C   UNL     1       1.913  -4.206  29.833  0.00  0.00    +0.000 C 
ENDROOT
TORSDOF 0
