REMARK  Name = =
REMARK  4 active torsions:
REMARK  status: ('A' for Active; 'I' for Inactive)
REMARK    1  A    between atoms: C_1  and  N_9
REMARK    2  A    between atoms: C_1  and  O_18
REMARK    3  A    between atoms: O_18  and  C_19
REMARK    4  A    between atoms: C_19  and  N_21
REMARK                            x       y       z     vdW  Elec       q    Type
REMARK                         _______ _______ _______ _____ _____    ______ ____
ROOT
ATOM      1  C   UNL     1       0.195  -6.674  29.685  0.00  0.00    +0.231 C 
ATOM      2  C   UNL     1      -0.287  -5.312  29.321  0.00  0.00    +0.205 C 
ATOM      3  O   UNL     1      -1.224  -5.149  28.307  0.00  0.00    -0.340 OA
ATOM      4  C   UNL     1      -1.566  -4.895  29.668  0.00  0.00    +0.209 C 
ATOM      5  C   UNL     1      -2.514  -5.914  30.198  0.00  0.00    +0.202 C 
ATOM      6  O   UNL     1      -3.724  -5.866  29.967  0.00  0.00    -0.289 OA
ATOM      7  C   UNL     1      -1.903  -6.969  31.009  0.00  0.00    +0.040 C 
ATOM      8  C   UNL     1      -0.671  -7.295  30.758  0.00  0.00    +0.035 C 
ENDROOT
BRANCH   1   9
ATOM      9  N   UNL     1       1.493  -6.504  30.352  0.00  0.00    -0.234 NA
ATOM     10  C   UNL     1       1.441  -7.345  31.543  0.00  0.00    +0.080 C 
ATOM     11  C   UNL     1       2.095  -6.739  32.738  0.00  0.00    +0.043 C 
ATOM     12  C   UNL     1       3.223  -5.811  32.407  0.00  0.00    -0.028 C 
ATOM     13  C   UNL     1       3.003  -4.990  31.388  0.00  0.00    -0.013 C 
ATOM     14  C   UNL     1       1.675  -5.108  30.728  0.00  0.00    +0.102 C 
ENDBRANCH   1   9
BRANCH   1  15
ATOM     15  O   UNL     1       0.228  -7.592  28.660  0.00  0.00    -0.445 OA
BRANCH  15  16
ATOM     16  C   UNL     1       1.215  -8.218  28.004  0.00  0.00    +0.227 C 
ATOM     17  S   UNL     1       1.011  -9.728  27.430  0.00  0.00    +0.006 S 
BRANCH  16  18
ATOM     18  N   UNL     1       2.468  -7.590  27.785  0.00  0.00    -0.323 N 
ATOM     19  H   UNL     1       2.626  -6.677  28.118  0.00  0.00    +0.146 HD
ATOM     20  H   UNL     1       3.180  -8.067  27.300  0.00  0.00    +0.146 HD
ENDBRANCH  16  18
ENDBRANCH  15  16
ENDBRANCH   1  15
TORSDOF 4
REMARK  Name = =
REMARK  4 active torsions:
REMARK  status: ('A' for Active; 'I' for Inactive)
REMARK    1  A    between atoms: C_1  and  N_9
REMARK    2  A    between atoms: C_1  and  O_18
REMARK    3  A    between atoms: O_18  and  C_19
REMARK    4  A    between atoms: C_19  and  N_21
REMARK                            x       y       z     vdW  Elec       q    Type
REMARK                         _______ _______ _______ _____ _____    ______ ____
ROOT
ATOM      1  I   UNL     1      -3.063  -7.886  32.525  0.00  0.00    -0.107 I 
ATOM      2  H   UNL     1      -1.502  -7.886  32.525  0.00  0.00    +0.107 HD
ENDROOT
TORSDOF 0
REMARK  Name = =
REMARK  4 active torsions:
REMARK  status: ('A' for Active; 'I' for Inactive)
REMARK    1  A    between atoms: C_1  and  N_9
REMARK    2  A    between atoms: C_1  and  O_18
REMARK    3  A    between atoms: O_18  and  C_19
REMARK    4  A    between atoms: C_19  and  N_21
REMARK                            x       y       z     vdW  Elec       q    Type
REMARK                         _______ _______ _______ _____ _____    ______ ____
ROOT
ATOM      1  C   UNL     1      -3.616  -6.411  33.881  0.00  0.00    +0.000 C 
ATOM      2  C   UNL     1      -4.888  -6.161  34.104  0.00  0.00    +0.000 C 
ENDROOT
TORSDOF 0
