REMARK  Name = =
REMARK  6 active torsions:
REMARK  status: ('A' for Active; 'I' for Inactive)
REMARK    1  A    between atoms: C_1  and  N_9
REMARK    2  A    between atoms: C_1  and  O_24
REMARK    3  A    between atoms: C_10  and  N_15
REMARK    4  A    between atoms: N_15  and  N_19
REMARK    5  A    between atoms: O_24  and  C_25
REMARK    6  A    between atoms: C_25  and  N_27
REMARK                            x       y       z     vdW  Elec       q    Type
REMARK                         _______ _______ _______ _____ _____    ______ ____
ROOT
ATOM      1  C   UNL     1       0.014  -6.123  30.214  0.00  0.00    +0.232 C 
ATOM      2  C   UNL     1      -1.147  -5.755  31.107  0.00  0.00    +0.205 C 
ATOM      3  O   UNL     1      -1.680  -6.743  31.947  0.00  0.00    -0.340 OA
ATOM      4  C   UNL     1      -1.008  -5.550  32.450  0.00  0.00    +0.209 C 
ATOM      5  C   UNL     1       0.311  -5.919  33.024  0.00  0.00    +0.202 C 
ATOM      6  O   UNL     1       0.453  -6.334  34.177  0.00  0.00    -0.289 OA
ATOM      7  C   UNL     1       1.482  -5.777  32.161  0.00  0.00    +0.040 C 
ATOM      8  C   UNL     1       1.330  -5.873  30.838  0.00  0.00    +0.035 C 
ENDROOT
BRANCH   1   9
ATOM      9  N   UNL     1      -0.115  -7.481  29.724  0.00  0.00    -0.218 NA
ATOM     10  C   UNL     1      -1.433  -7.773  29.244  0.00  0.00    +0.164 C 
ATOM     11  C   UNL     1      -1.437  -8.455  27.893  0.00  0.00    +0.064 C 
ATOM     12  C   UNL     1      -0.453  -7.868  26.945  0.00  0.00    -0.026 C 
ATOM     13  C   UNL     1       0.750  -7.591  27.454  0.00  0.00    -0.013 C 
ATOM     14  C   UNL     1       0.943  -7.903  28.875  0.00  0.00    +0.103 C 
BRANCH  10  15
ATOM     15  N   UNL     1      -2.263  -8.529  30.138  0.00  0.00    -0.150 N 
ATOM     16  C   UNL     1      -1.767  -9.290  31.227  0.00  0.00    +0.318 C 
ATOM     17  O   UNL     1      -0.531  -9.309  31.425  0.00  0.00    -0.251 OA
ATOM     18  N   UNL     1      -2.592 -10.033  32.105  0.00  0.00    -0.312 N 
ATOM     19  H   UNL     1      -3.568 -10.039  31.977  0.00  0.00    +0.147 HD
ATOM     20  H   UNL     1      -2.190 -10.544  32.844  0.00  0.00    +0.147 HD
BRANCH  15  21
ATOM     21  N   UNL     1      -3.672  -8.549  29.960  0.00  0.00    +0.055 NA
ATOM     22  O   UNL     1      -4.271  -9.638  29.858  0.00  0.00    -0.078 OA
ENDBRANCH  15  21
ENDBRANCH  10  15
ENDBRANCH   1   9
BRANCH   1  23
ATOM     23  O   UNL     1      -0.133  -5.298  29.044  0.00  0.00    -0.445 OA
BRANCH  23  24
ATOM     24  C   UNL     1      -0.008  -3.941  29.045  0.00  0.00    +0.227 C 
ATOM     25  S   UNL     1      -1.100  -3.027  29.829  0.00  0.00    +0.006 S 
BRANCH  24  26
ATOM     26  N   UNL     1       1.081  -3.346  28.359  0.00  0.00    -0.323 N 
ATOM     27  H   UNL     1       1.735  -3.912  27.888  0.00  0.00    +0.146 HD
ATOM     28  H   UNL     1       1.183  -2.367  28.353  0.00  0.00    +0.146 HD
ENDBRANCH  24  26
ENDBRANCH  23  24
ENDBRANCH   1  23
TORSDOF 6
REMARK  Name = =
REMARK  6 active torsions:
REMARK  status: ('A' for Active; 'I' for Inactive)
REMARK    1  A    between atoms: C_1  and  N_9
REMARK    2  A    between atoms: C_1  and  O_24
REMARK    3  A    between atoms: C_10  and  N_15
REMARK    4  A    between atoms: N_15  and  N_19
REMARK    5  A    between atoms: O_24  and  C_25
REMARK    6  A    between atoms: C_25  and  N_27
REMARK                            x       y       z     vdW  Elec       q    Type
REMARK                         _______ _______ _______ _____ _____    ______ ____
ROOT
ATOM      1  I   UNL     1       3.390  -5.424  32.960  0.00  0.00    -0.107 I 
ATOM      2  H   UNL     1       4.951  -5.424  32.960  0.00  0.00    +0.107 HD
ENDROOT
TORSDOF 0
REMARK  Name = =
REMARK  6 active torsions:
REMARK  status: ('A' for Active; 'I' for Inactive)
REMARK    1  A    between atoms: C_1  and  N_9
REMARK    2  A    between atoms: C_1  and  O_24
REMARK    3  A    between atoms: C_10  and  N_15
REMARK    4  A    between atoms: N_15  and  N_19
REMARK    5  A    between atoms: O_24  and  C_25
REMARK    6  A    between atoms: C_25  and  N_27
REMARK                            x       y       z     vdW  Elec       q    Type
REMARK                         _______ _______ _______ _____ _____    ______ ____
ROOT
ATOM      1  C   UNL     1       3.183  -4.067  34.520  0.00  0.00    +0.000 C 
ATOM      2  C   UNL     1       2.979  -4.478  35.759  0.00  0.00    +0.000 C 
ENDROOT
TORSDOF 0
