REMARK  Name = =
REMARK  8 active torsions:
REMARK  status: ('A' for Active; 'I' for Inactive)
REMARK    1  A    between atoms: C_1  and  N_29
REMARK    2  A    between atoms: C_2  and  C_8
REMARK    3  A    between atoms: C_6  and  N_16
REMARK    4  A    between atoms: C_7  and  C_23
REMARK    5  A    between atoms: C_9  and  N_15
REMARK    6  A    between atoms: C_20  and  O_22
REMARK    7  A    between atoms: N_29  and  C_31
REMARK    8  A    between atoms: C_31  and  C_32
REMARK                            x       y       z     vdW  Elec       q    Type
REMARK                         _______ _______ _______ _____ _____    ______ ____
ROOT
ATOM      1  C   UNL     1       0.631  -7.168  28.727  0.00  0.00    +0.093 C 
ATOM      2  C   UNL     1       0.118  -6.596  29.969  0.00  0.00    +0.071 C 
ATOM      3  C   UNL     1      -0.857  -5.495  29.339  0.00  0.00    +0.125 C 
ATOM      4  O   UNL     1      -1.118  -6.002  28.070  0.00  0.00    -0.355 OA
ATOM      5  C   UNL     1       0.254  -6.221  27.671  0.00  0.00    +0.149 C 
ATOM      6  C   UNL     1       0.749  -4.819  27.806  0.00  0.00    +0.120 C 
ATOM      7  C   UNL     1       0.002  -4.310  29.013  0.00  0.00    +0.076 C 
ENDROOT
BRANCH   2   8
ATOM      8  C   UNL     1      -0.705  -7.347  30.898  0.00  0.00    +0.032 C 
ATOM      9  C   UNL     1      -0.207  -7.441  32.220  0.00  0.00    +0.126 C 
ATOM     10  N   UNL     1      -0.946  -7.973  33.187  0.00  0.00    -0.200 NA
ATOM     11  C   UNL     1      -2.201  -8.433  32.897  0.00  0.00    +0.215 C 
ATOM     12  N   UNL     1      -2.700  -8.359  31.667  0.00  0.00    -0.213 NA
ATOM     13  C   UNL     1      -1.943  -7.816  30.686  0.00  0.00    +0.100 C 
ATOM     14  N   UNL     1      -2.905  -8.988  33.979  0.00  0.00    -0.327 N 
ATOM     15  H   UNL     1      -2.491  -9.019  34.872  0.00  0.00    +0.145 HD
ATOM     16  H   UNL     1      -3.812  -9.345  33.845  0.00  0.00    +0.145 HD
BRANCH   9  17
ATOM     17  N   UNL     1       1.112  -7.004  32.518  0.00  0.00    -0.343 N 
ATOM     18  H   UNL     1       1.671  -6.608  31.811  0.00  0.00    +0.144 HD
ATOM     19  H   UNL     1       1.467  -7.097  33.432  0.00  0.00    +0.144 HD
ENDBRANCH   9  17
ENDBRANCH   2   8
BRANCH   6  20
ATOM     20  N   UNL     1       2.124  -4.496  27.742  0.00  0.00    -0.180 N 
ATOM     21  C   UNL     1       3.106  -4.554  28.761  0.00  0.00    +0.309 C 
ATOM     22  O   UNL     1       2.886  -4.862  29.945  0.00  0.00    -0.252 OA
ATOM     23  N   UNL     1       4.505  -4.249  28.510  0.00  0.00    -0.313 N 
ATOM     24  C   UNL     1       2.590  -4.010  26.451  0.00  0.00    +0.409 C 
ATOM     25  O   UNL     1       1.782  -3.866  25.473  0.00  0.00    -0.226 OA
ATOM     26  H   UNL     1       4.798  -3.992  27.606  0.00  0.00    +0.146 HD
ATOM     27  H   UNL     1       5.159  -4.300  29.244  0.00  0.00    +0.146 HD
BRANCH  24  28
ATOM     28  O   UNL     1       3.894  -3.681  26.183  0.00  0.00    -0.466 OA
ATOM     29  H   UNL     1       4.545  -3.761  26.853  0.00  0.00    +0.297 HD
ENDBRANCH  24  28
ENDBRANCH   6  20
BRANCH   7  30
ATOM     30  C   UNL     1      -0.872  -3.135  28.676  0.00  0.00    +0.119 C 
ATOM     31  O   UNL     1      -1.268  -2.524  29.901  0.00  0.00    -0.356 OA
ATOM     32  C   UNL     1      -2.493  -1.901  29.526  0.00  0.00    +0.142 C 
ATOM     33  C   UNL     1      -2.191  -0.731  28.651  0.00  0.00    +0.032 C 
ATOM     34  C   UNL     1      -1.259  -1.005  27.518  0.00  0.00    +0.005 C 
ATOM     35  C   UNL     1      -0.178  -2.020  27.930  0.00  0.00    +0.030 C 
ENDBRANCH   7  30
BRANCH   1  36
ATOM     36  N   UNL     1       0.580  -8.544  28.468  0.00  0.00    -0.265 NA
ATOM     37  C   UNL     1      -0.541  -9.240  28.039  0.00  0.00    +0.090 C 
BRANCH  36  38
ATOM     38  C   UNL     1       1.729  -8.944  27.648  0.00  0.00    +0.119 C 
BRANCH  38  39
ATOM     39  C   UNL     1       1.373 -10.135  26.841  0.00  0.00    +0.080 C 
ATOM     40  N   UNL     1       2.249 -10.948  26.394  0.00  0.00    -0.300 NA
ATOM     41  H   UNL     1       1.971 -11.728  25.861  0.00  0.00    +0.186 HD
ENDBRANCH  38  39
ENDBRANCH  36  38
ENDBRANCH   1  36
TORSDOF 8
