REMARK  Name = =
REMARK  8 active torsions:
REMARK  status: ('A' for Active; 'I' for Inactive)
REMARK    1  A    between atoms: C_1  and  N_9
REMARK    2  A    between atoms: C_1  and  O_24
REMARK    3  A    between atoms: C_8  and  O_28
REMARK    4  A    between atoms: C_10  and  N_15
REMARK    5  A    between atoms: N_15  and  N_19
REMARK    6  A    between atoms: O_24  and  C_25
REMARK    7  A    between atoms: C_25  and  N_27
REMARK    8  A    between atoms: O_28  and  C_29
REMARK                            x       y       z     vdW  Elec       q    Type
REMARK                         _______ _______ _______ _____ _____    ______ ____
ROOT
ATOM      1  C   UNL     1       1.674  -6.910  28.221  0.00  0.00    +0.264 C 
ATOM      2  C   UNL     1       3.015  -7.441  28.770  0.00  0.00    +0.209 C 
ATOM      3  O   UNL     1       3.279  -8.809  28.516  0.00  0.00    -0.340 OA
ATOM      4  C   UNL     1       4.075  -7.723  27.988  0.00  0.00    +0.209 C 
ATOM      5  C   UNL     1       3.823  -7.493  26.536  0.00  0.00    +0.205 C 
ATOM      6  O   UNL     1       4.308  -8.206  25.664  0.00  0.00    -0.289 OA
ATOM      7  C   UNL     1       2.960  -6.357  26.249  0.00  0.00    +0.078 C 
ATOM      8  C   UNL     1       1.926  -6.074  27.062  0.00  0.00    +0.179 C 
ENDROOT
BRANCH   1   9
ATOM      9  N   UNL     1       1.032  -6.344  29.346  0.00  0.00    -0.215 NA
ATOM     10  C   UNL     1       1.257  -7.063  30.543  0.00  0.00    +0.164 C 
ATOM     11  C   UNL     1       0.024  -7.623  31.224  0.00  0.00    +0.064 C 
ATOM     12  C   UNL     1      -0.975  -6.501  31.389  0.00  0.00    -0.026 C 
ATOM     13  C   UNL     1      -1.022  -5.573  30.445  0.00  0.00    -0.013 C 
ATOM     14  C   UNL     1      -0.133  -5.598  29.239  0.00  0.00    +0.103 C 
BRANCH  10  15
ATOM     15  N   UNL     1       1.928  -6.296  31.564  0.00  0.00    -0.150 N 
ATOM     16  C   UNL     1       2.060  -6.795  32.863  0.00  0.00    +0.318 C 
ATOM     17  O   UNL     1       2.649  -6.133  33.754  0.00  0.00    -0.251 OA
ATOM     18  N   UNL     1       1.531  -8.063  33.210  0.00  0.00    -0.312 N 
ATOM     19  H   UNL     1       1.064  -8.604  32.532  0.00  0.00    +0.147 HD
ATOM     20  H   UNL     1       1.630  -8.403  34.129  0.00  0.00    +0.147 HD
BRANCH  15  21
ATOM     21  N   UNL     1       2.445  -5.055  31.247  0.00  0.00    +0.055 NA
ATOM     22  O   UNL     1       2.364  -4.056  32.000  0.00  0.00    -0.078 OA
ENDBRANCH  15  21
ENDBRANCH  10  15
ENDBRANCH   1   9
BRANCH   1  23
ATOM     23  O   UNL     1       0.955  -8.090  27.893  0.00  0.00    -0.442 OA
BRANCH  23  24
ATOM     24  C   UNL     1       0.103  -8.315  26.876  0.00  0.00    +0.228 C 
ATOM     25  S   UNL     1      -1.512  -8.188  27.243  0.00  0.00    +0.006 S 
BRANCH  24  26
ATOM     26  N   UNL     1       0.384  -8.645  25.538  0.00  0.00    -0.323 N 
ATOM     27  H   UNL     1      -0.353  -8.781  24.899  0.00  0.00    +0.146 HD
ATOM     28  H   UNL     1       1.318  -8.740  25.240  0.00  0.00    +0.146 HD
ENDBRANCH  24  26
ENDBRANCH  23  24
ENDBRANCH   1  23
BRANCH   8  29
ATOM     29  O   UNL     1       1.194  -4.951  26.657  0.00  0.00    -0.453 OA
BRANCH  29  30
ATOM     30  C   UNL     1       1.416  -3.672  27.101  0.00  0.00    +0.145 C 
ATOM     31  C   UNL     1       0.288  -2.905  27.375  0.00  0.00    +0.035 C 
ATOM     32  C   UNL     1       0.450  -1.604  27.827  0.00  0.00    +0.003 C 
ATOM     33  C   UNL     1       1.703  -1.040  28.017  0.00  0.00    +0.000 C 
ATOM     34  C   UNL     1       2.817  -1.805  27.744  0.00  0.00    +0.003 C 
ATOM     35  C   UNL     1       2.634  -3.088  27.298  0.00  0.00    +0.037 C 
ATOM     36  C   UNL     1      -0.641  -0.787  28.118  0.00  0.00    +0.000 C 
ATOM     37  C   UNL     1      -1.893  -1.335  27.935  0.00  0.00    +0.000 C 
ATOM     38  C   UNL     1      -2.096  -2.633  27.484  0.00  0.00    +0.000 C 
ATOM     39  C   UNL     1      -0.990  -3.406  27.208  0.00  0.00    +0.003 C 
ENDBRANCH  29  30
ENDBRANCH   8  29
TORSDOF 8
REMARK  Name = =
REMARK  8 active torsions:
REMARK  status: ('A' for Active; 'I' for Inactive)
REMARK    1  A    between atoms: C_1  and  N_9
REMARK    2  A    between atoms: C_1  and  O_24
REMARK    3  A    between atoms: C_8  and  O_28
REMARK    4  A    between atoms: C_10  and  N_15
REMARK    5  A    between atoms: N_15  and  N_19
REMARK    6  A    between atoms: O_24  and  C_25
REMARK    7  A    between atoms: C_25  and  N_27
REMARK    8  A    between atoms: O_28  and  C_29
REMARK                            x       y       z     vdW  Elec       q    Type
REMARK                         _______ _______ _______ _____ _____    ______ ____
ROOT
ATOM      1  I   UNL     1       3.337  -5.201  24.511  0.00  0.00    -0.107 I 
ATOM      2  H   UNL     1       4.898  -5.201  24.511  0.00  0.00    +0.107 HD
ENDROOT
TORSDOF 0
REMARK  Name = =
REMARK  8 active torsions:
REMARK  status: ('A' for Active; 'I' for Inactive)
REMARK    1  A    between atoms: C_1  and  N_9
REMARK    2  A    between atoms: C_1  and  O_24
REMARK    3  A    between atoms: C_8  and  O_28
REMARK    4  A    between atoms: C_10  and  N_15
REMARK    5  A    between atoms: N_15  and  N_19
REMARK    6  A    between atoms: O_24  and  C_25
REMARK    7  A    between atoms: C_25  and  N_27
REMARK    8  A    between atoms: O_28  and  C_29
REMARK                            x       y       z     vdW  Elec       q    Type
REMARK                         _______ _______ _______ _____ _____    ______ ____
ROOT
ATOM      1  C   UNL     1       2.689  -6.427  22.898  0.00  0.00    +0.000 C 
ATOM      2  C   UNL     1       2.007  -5.881  21.896  0.00  0.00    +0.000 C 
ENDROOT
TORSDOF 0
