MODEL 1
REMARK VINA RESULT:    -9.648      0.000      0.000
REMARK INTER + INTRA:         -15.675
REMARK INTER:                 -13.879
REMARK INTRA:                  -1.797
REMARK UNBOUND:                -1.797
REMARK  Name = =
REMARK  8 active torsions:
REMARK  status: ('A' for Active; 'I' for Inactive)
REMARK    1  A    between atoms: C_1  and  O_41
REMARK    2  A    between atoms: C_5  and  C_32
REMARK    3  A    between atoms: C_5  and  C_39
REMARK    4  A    between atoms: C_10  and  C_12
REMARK    5  A    between atoms: C_19  and  N_22
REMARK    6  A    between atoms: C_23  and  C_25
REMARK    7  A    between atoms: C_26  and  O_31
REMARK    8  A    between atoms: O_41  and  N_43
REMARK                            x       y       z     vdW  Elec       q    Type
REMARK                         _______ _______ _______ _____ _____    ______ ____
ROOT
ATOM      1  C   UNL     1     -11.167  -2.152  30.816  0.00  0.00    +0.197 C 
ATOM      2  C   UNL     1     -10.007  -1.365  31.307  0.00  0.00    +0.047 C 
ATOM      3  C   UNL     1      -9.857  -0.021  30.643  0.00  0.00    +0.022 C 
ATOM      4  C   UNL     1      -9.954  -0.124  29.133  0.00  0.00    +0.012 C 
ATOM      5  C   UNL     1     -11.362  -0.584  28.850  0.00  0.00    +0.059 C 
ATOM      6  C   UNL     1     -11.436  -2.019  29.347  0.00  0.00    +0.054 C 
ATOM      7  C   UNL     1      -8.613   0.634  31.082  0.00  0.00    -0.044 C 
ATOM      8  C   UNL     1      -8.617   1.897  31.421  0.00  0.00    -0.009 C 
ATOM      9  C   UNL     1      -7.345  -0.125  31.145  0.00  0.00    +0.024 C 
ATOM     10  C   UNL     1      -7.616  -1.404  31.906  0.00  0.00    +0.031 C 
ATOM     11  C   UNL     1      -8.708  -2.148  31.223  0.00  0.00    +0.007 C 
ENDROOT
BRANCH  10  12
ATOM     12  C   UNL     1      -6.379  -2.269  31.995  0.00  0.00    +0.116 C 
ATOM     13  O   UNL     1      -5.290  -1.675  31.396  0.00  0.00    -0.354 OA
ATOM     14  C   UNL     1      -4.112  -2.362  31.479  0.00  0.00    +0.172 C 
ATOM     15  C   UNL     1      -4.151  -3.549  32.383  0.00  0.00    +0.149 C 
ATOM     16  C   UNL     1      -4.784  -3.198  33.716  0.00  0.00    +0.035 C 
ATOM     17  C   UNL     1      -6.176  -2.678  33.425  0.00  0.00    +0.032 C 
ATOM     18  O   UNL     1      -4.792  -4.659  31.854  0.00  0.00    -0.315 OA
ATOM     19  C   UNL     1      -4.173  -4.994  30.657  0.00  0.00    +0.325 C 
ATOM     20  O   UNL     1      -4.335  -3.983  29.710  0.00  0.00    -0.312 OA
ATOM     21  C   UNL     1      -3.700  -2.810  30.095  0.00  0.00    +0.178 C 
BRANCH  19  22
ATOM     22  N   UNL     1      -2.745  -5.150  30.983  0.00  0.00    -0.255 N 
ATOM     23  C   UNL     1      -2.264  -6.370  31.454  0.00  0.00    +0.252 C 
ATOM     24  O   UNL     1      -3.119  -7.316  31.580  0.00  0.00    -0.270 OA
ATOM     25  H   UNL     1      -2.128  -4.391  30.869  0.00  0.00    +0.154 HD
BRANCH  23  26
ATOM     26  C   UNL     1      -0.896  -6.640  31.803  0.00  0.00    +0.087 C 
ATOM     27  C   UNL     1       0.210  -6.252  31.107  0.00  0.00    +0.138 C 
ATOM     28  C   UNL     1       1.499  -6.563  31.532  0.00  0.00    +0.037 C 
ATOM     29  C   UNL     1       1.718  -7.281  32.683  0.00  0.00    +0.003 C 
ATOM     30  C   UNL     1       0.608  -7.681  33.399  0.00  0.00    +0.000 C 
ATOM     31  C   UNL     1      -0.658  -7.369  32.968  0.00  0.00    +0.008 C 
BRANCH  27  32
ATOM     32  O   UNL     1       0.069  -5.528  29.941  0.00  0.00    -0.505 OA
ATOM     33  H   UNL     1       0.696  -4.867  29.720  0.00  0.00    +0.292 HD
ENDBRANCH  27  32
ENDBRANCH  23  26
ENDBRANCH  19  22
ENDBRANCH  10  12
BRANCH   5  34
ATOM     34  C   UNL     1     -11.723  -0.620  27.396  0.00  0.00    +0.172 C 
ATOM     35  O   UNL     1     -10.815   0.112  26.605  0.00  0.00    -0.452 OA
ATOM     36  C   UNL     1      -9.842  -0.490  25.837  0.00  0.00    +0.317 C 
ATOM     37  O   UNL     1      -9.149   0.169  25.024  0.00  0.00    -0.250 OA
ATOM     38  C   UNL     1      -9.612  -1.933  25.970  0.00  0.00    +0.110 C 
ATOM     39  C   UNL     1     -10.823  -2.725  26.313  0.00  0.00    +0.015 C 
ATOM     40  C   UNL     1     -11.997  -1.952  26.811  0.00  0.00    +0.045 C 
ENDBRANCH   5  34
BRANCH   5  41
ATOM     41  C   UNL     1     -12.264   0.297  29.660  0.00  0.00    -0.023 C 
ATOM     42  C   UNL     1     -13.432   0.713  29.216  0.00  0.00    -0.005 C 
ENDBRANCH   5  41
BRANCH   1  43
ATOM     43  O   UNL     1     -12.371  -1.821  31.482  0.00  0.00    -0.381 OA
BRANCH  43  45
ATOM     44  C   UNL     1     -13.064  -3.463  32.864  0.00  0.00    +0.164 C 
ATOM     45  N   UNL     1     -13.339  -2.684  31.863  0.00  0.00    -0.080 NA
ENDBRANCH  43  45
ENDBRANCH   1  43
TORSDOF 8
ENDMDL
