MODEL 1
REMARK VINA RESULT:    -7.516      0.000      0.000
REMARK INTER + INTRA:          -8.544
REMARK INTER:                  -8.834
REMARK INTRA:                   0.290
REMARK UNBOUND:                 0.290
REMARK  Name = =
REMARK  3 active torsions:
REMARK  status: ('A' for Active; 'I' for Inactive)
REMARK    1  A    between atoms: C_1  and  C_18
REMARK    2  A    between atoms: C_1  and  N_28
REMARK    3  A    between atoms: N_28  and  S_35
REMARK                            x       y       z     vdW  Elec       q    Type
REMARK                         _______ _______ _______ _____ _____    ______ ____
ROOT
ATOM      1  C   UNL     1      59.836 161.895  39.804  0.00  0.00    +0.154 C 
ATOM      2  C   UNL     1      58.545 161.969  40.583  0.00  0.00    +0.002 C 
ATOM      3  C   UNL     1      57.999 160.787  41.034  0.00  0.00    -0.021 C 
ATOM      4  C   UNL     1      56.804 160.827  41.748  0.00  0.00    +0.036 C 
ATOM      5  C   UNL     1      56.168 162.020  42.006  0.00  0.00    +0.176 C 
ATOM      6  C   UNL     1      56.708 163.204  41.557  0.00  0.00    +0.176 C 
ATOM      7  C   UNL     1      57.900 163.134  40.848  0.00  0.00    +0.038 C 
ATOM      8  O   UNL     1      55.865 164.237  41.954  0.00  0.00    -0.435 OA
ATOM      9  C   UNL     1      55.058 163.741  43.034  0.00  0.00    +0.429 C 
ATOM     10  O   UNL     1      54.989 162.374  42.676  0.00  0.00    -0.435 OA
ATOM     11  C   UNL     1      58.621 159.489  40.789  0.00  0.00    +0.029 C 
ATOM     12  C   UNL     1      59.568 159.391  39.644  0.00  0.00    +0.039 C 
ATOM     13  C   UNL     1      59.803 160.665  38.953  0.00  0.00    +0.062 C 
ATOM     14  C   UNL     1      58.802 160.681  37.861  0.00  0.00    +0.145 C 
ATOM     15  O   UNL     1      58.217 159.428  37.771  0.00  0.00    -0.354 OA
ATOM     16  C   UNL     1      58.929 158.565  38.559  0.00  0.00    +0.143 C 
ENDROOT
BRANCH   1  18
ATOM     17  N   UNL     1      59.840 163.183  37.532  0.00  0.00    -0.240 NA
ATOM     18  C   UNL     1      59.922 163.131  38.974  0.00  0.00    +0.158 C 
ATOM     19  N   UNL     1      60.095 164.333  39.408  0.00  0.00    -0.214 NA
ATOM     20  C   UNL     1      60.138 165.235  38.310  0.00  0.00    +0.166 C 
ATOM     21  C   UNL     1      59.964 164.386  37.138  0.00  0.00    +0.236 C 
ATOM     22  C   UNL     1      59.956 164.998  35.797  0.00  0.00    +0.259 C 
ATOM     23  O   UNL     1      59.804 164.260  34.795  0.00  0.00    -0.272 OA
ATOM     24  N   UNL     1      60.125 166.405  35.731  0.00  0.00    -0.236 N 
ATOM     25  C   UNL     1      60.292 167.173  36.925  0.00  0.00    +0.331 C 
ATOM     26  O   UNL     1      60.437 168.418  36.808  0.00  0.00    -0.250 OA
ATOM     27  N   UNL     1      60.287 166.515  38.188  0.00  0.00    -0.145 NA
ATOM     28  H   UNL     1      60.126 166.856  34.856  0.00  0.00    +0.159 HD
ENDBRANCH   1  18
BRANCH   1  29
ATOM     29  N   UNL     1      60.969 161.830  40.660  0.00  0.00    -0.158 N 
ATOM     30  C   UNL     1      62.272 161.704  40.118  0.00  0.00    +0.242 C 
ATOM     31  N   UNL     1      62.829 160.506  39.933  0.00  0.00    -0.190 NA
ATOM     32  C   UNL     1      64.052 160.306  39.427  0.00  0.00    +0.203 C 
ATOM     33  N   UNL     1      64.774 161.366  39.081  0.00  0.00    -0.202 NA
ATOM     34  C   UNL     1      64.263 162.602  39.245  0.00  0.00    +0.203 C 
ATOM     35  N   UNL     1      63.017 162.782  39.761  0.00  0.00    -0.190 NA
BRANCH  29  36
ATOM     36  S   UNL     1      60.854 161.927  42.369  0.00  0.00    +0.039 S 
ATOM     37  O   UNL     1      61.162 160.597  43.018  0.00  0.00    -0.158 OA
ATOM     38  O   UNL     1      61.831 162.907  42.889  0.00  0.00    -0.158 OA
ATOM     39  H   UNL     1      59.580 162.302  42.663  0.00  0.00    +0.233 HD
ENDBRANCH  29  36
ENDBRANCH   1  29
TORSDOF 3
ENDMDL
