REMARK  Name = =
REMARK  0 active torsions:
REMARK  status: ('A' for Active; 'I' for Inactive)
REMARK                            x       y       z     vdW  Elec       q    Type
REMARK                         _______ _______ _______ _____ _____    ______ ____
ROOT
ATOM      1  C   UNL     1      56.543 160.013  42.019  0.00  0.00    +0.045 C 
ATOM      2  C   UNL     1      56.583 161.309  41.757  0.00  0.00    +0.045 C 
ATOM      3  C   UNL     1      57.874 161.888  41.401  0.00  0.00    +0.196 C 
ATOM      4  O   UNL     1      57.931 163.118  41.148  0.00  0.00    -0.287 OA
ATOM      5  C   UNL     1      59.102 161.115  41.320  0.00  0.00    +0.042 C 
ATOM      6  C   UNL     1      59.060 159.764  41.593  0.00  0.00    +0.042 C 
ATOM      7  C   UNL     1      60.202 158.987  41.530  0.00  0.00    +0.003 C 
ATOM      8  C   UNL     1      61.416 159.557  41.189  0.00  0.00    +0.000 C 
ATOM      9  C   UNL     1      61.473 160.915  40.911  0.00  0.00    +0.000 C 
ATOM     10  C   UNL     1      60.327 161.689  40.977  0.00  0.00    +0.003 C 
ATOM     11  C   UNL     1      57.757 159.195  41.951  0.00  0.00    +0.196 C 
ATOM     12  O   UNL     1      57.689 157.970  42.203  0.00  0.00    -0.287 OA
ENDROOT
TORSDOF 0
