REMARK  Name = =
REMARK  2 active torsions:
REMARK  status: ('A' for Active; 'I' for Inactive)
REMARK    1  A    between atoms: C_1  and  C_14
REMARK    2  A    between atoms: C_8  and  C_15
REMARK                            x       y       z     vdW  Elec       q    Type
REMARK                         _______ _______ _______ _____ _____    ______ ____
ROOT
ATOM      1  C   UNL     1      56.149 163.074  41.517  0.00  0.00    +0.049 C 
ATOM      2  C   UNL     1      56.768 164.236  41.312  0.00  0.00    +0.046 C 
ATOM      3  C   UNL     1      58.201 164.243  41.068  0.00  0.00    +0.196 C 
ATOM      4  O   UNL     1      58.783 165.347  40.875  0.00  0.00    -0.287 OA
ATOM      5  C   UNL     1      58.996 163.013  41.035  0.00  0.00    +0.042 C 
ATOM      6  C   UNL     1      58.355 161.818  41.245  0.00  0.00    +0.042 C 
ATOM      7  C   UNL     1      59.095 160.631  41.218  0.00  0.00    +0.007 C 
ATOM      8  C   UNL     1      60.453 160.642  40.986  0.00  0.00    +0.042 C 
ATOM      9  C   UNL     1      61.102 161.838  40.774  0.00  0.00    +0.003 C 
ATOM     10  C   UNL     1      60.356 163.019  40.802  0.00  0.00    +0.003 C 
ATOM     11  C   UNL     1      56.919 161.826  41.490  0.00  0.00    +0.196 C 
ATOM     12  O   UNL     1      56.339 160.724  41.682  0.00  0.00    -0.287 OA
ENDROOT
BRANCH   1  14
ATOM     13  S   UNL     1      54.020 161.738  42.355  0.00  0.00    -0.050 S 
ATOM     14  C   UNL     1      54.722 163.073  41.760  0.00  0.00    +0.045 C 
ENDBRANCH   1  14
BRANCH   8  15
ATOM     15  C   UNL     1      61.242 159.418  40.953  0.00  0.00    +0.234 C 
ATOM     16  O   UNL     1      62.391 159.345  40.496  0.00  0.00    -0.283 OA
ENDBRANCH   8  15
TORSDOF 2
