REMARK  Name = =
REMARK  3 active torsions:
REMARK  status: ('A' for Active; 'I' for Inactive)
REMARK    1  A    between atoms: C_1  and  C_15
REMARK    2  A    between atoms: C_8  and  C_16
REMARK    3  A    between atoms: S_14  and  C_15
REMARK                            x       y       z     vdW  Elec       q    Type
REMARK                         _______ _______ _______ _____ _____    ______ ____
ROOT
ATOM      1  C   UNL     1      59.432 164.542  40.653  0.00  0.00    +0.032 C 
ATOM      2  C   UNL     1      58.176 164.922  40.807  0.00  0.00    +0.042 C 
ATOM      3  C   UNL     1      57.098 164.015  41.151  0.00  0.00    +0.196 C 
ATOM      4  O   UNL     1      55.922 164.441  41.284  0.00  0.00    -0.287 OA
ATOM      5  C   UNL     1      57.445 162.605  41.333  0.00  0.00    +0.042 C 
ATOM      6  C   UNL     1      58.734 162.144  41.186  0.00  0.00    +0.042 C 
ATOM      7  C   UNL     1      59.056 160.815  41.358  0.00  0.00    +0.007 C 
ATOM      8  C   UNL     1      58.087 159.877  41.689  0.00  0.00    +0.042 C 
ATOM      9  C   UNL     1      56.802 160.355  41.832  0.00  0.00    +0.003 C 
ATOM     10  C   UNL     1      56.460 161.682  41.664  0.00  0.00    +0.003 C 
ATOM     11  C   UNL     1      59.761 163.148  40.834  0.00  0.00    +0.193 C 
ATOM     12  O   UNL     1      60.923 162.668  40.713  0.00  0.00    -0.287 OA
ENDROOT
BRANCH   8  13
ATOM     13  C   UNL     1      58.409 158.459  41.877  0.00  0.00    +0.234 C 
ATOM     14  O   UNL     1      57.504 157.701  42.264  0.00  0.00    -0.283 OA
ENDBRANCH   8  13
BRANCH   1  15
ATOM     15  C   UNL     1      60.470 165.483  40.308  0.00  0.00    +0.106 C 
BRANCH  15  17
ATOM     16  F   UNL     1      63.122 166.398  39.680  0.00  0.00    -0.179 F 
ATOM     17  S   UNL     1      62.033 165.095  40.096  0.00  0.00    -0.033 S 
ATOM     18  H   UNL     1      62.480 164.540  41.255  0.00  0.00    +0.127 HD
ENDBRANCH  15  17
ENDBRANCH   1  15
TORSDOF 3
