REMARK  Name = =
REMARK  6 active torsions:
REMARK  status: ('A' for Active; 'I' for Inactive)
REMARK    1  A    between atoms: C_1  and  C_15
REMARK    2  A    between atoms: C_8  and  C_16
REMARK    3  A    between atoms: C_9  and  C_18
REMARK    4  A    between atoms: S_14  and  C_15
REMARK    5  A    between atoms: C_19  and  S_20
REMARK    6  A    between atoms: S_20  and  S_21
REMARK                            x       y       z     vdW  Elec       q    Type
REMARK                         _______ _______ _______ _____ _____    ______ ____
ROOT
ATOM      1  C   UNL     1      56.942 162.197  41.509  0.00  0.00    +0.032 C 
ATOM      2  C   UNL     1      56.832 163.479  41.261  0.00  0.00    +0.042 C 
ATOM      3  C   UNL     1      57.996 164.276  40.892  0.00  0.00    +0.196 C 
ATOM      4  O   UNL     1      57.870 165.499  40.658  0.00  0.00    -0.287 OA
ATOM      5  C   UNL     1      59.286 163.615  40.805  0.00  0.00    +0.042 C 
ATOM      6  C   UNL     1      59.437 162.272  41.059  0.00  0.00    +0.042 C 
ATOM      7  C   UNL     1      60.661 161.645  40.978  0.00  0.00    +0.007 C 
ATOM      8  C   UNL     1      61.784 162.405  40.624  0.00  0.00    +0.042 C 
ATOM      9  C   UNL     1      61.673 163.746  40.363  0.00  0.00    +0.004 C 
ATOM     10  C   UNL     1      60.435 164.325  40.457  0.00  0.00    +0.003 C 
ATOM     11  C   UNL     1      58.248 161.518  41.424  0.00  0.00    +0.193 C 
ATOM     12  O   UNL     1      58.304 160.283  41.672  0.00  0.00    -0.287 OA
ENDROOT
BRANCH   8  13
ATOM     13  C   UNL     1      63.049 161.689  40.553  0.00  0.00    +0.234 C 
ATOM     14  O   UNL     1      63.057 160.436  40.813  0.00  0.00    -0.283 OA
ENDBRANCH   8  13
BRANCH   9  15
ATOM     15  C   UNL     1      62.851 164.511  39.998  0.00  0.00    +0.008 C 
ATOM     16  C   UNL     1      62.818 165.803  39.734  0.00  0.00    +0.042 C 
BRANCH  16  17
ATOM     17  S   UNL     1      64.324 166.641  39.297  0.00  0.00    -0.059 S 
BRANCH  17  18
ATOM     18  S   UNL     1      63.923 168.499  38.316  0.00  0.00    -0.105 S 
ATOM     19  H   UNL     1      65.097 169.107  37.999  0.00  0.00    +0.114 HD
ENDBRANCH  17  18
ENDBRANCH  16  17
ENDBRANCH   9  15
BRANCH   1  20
ATOM     20  C   UNL     1      55.756 161.417  41.878  0.00  0.00    +0.106 C 
BRANCH  20  22
ATOM     21  F   UNL     1      53.846 163.591  41.757  0.00  0.00    -0.179 F 
ATOM     22  S   UNL     1      54.257 161.957  42.026  0.00  0.00    -0.033 S 
ATOM     23  H   UNL     1      53.505 161.229  41.158  0.00  0.00    +0.127 HD
ENDBRANCH  20  22
ENDBRANCH   1  20
TORSDOF 6
