REMARK  Name = =
REMARK  7 active torsions:
REMARK  status: ('A' for Active; 'I' for Inactive)
REMARK    1  A    between atoms: C_1  and  C_33
REMARK    2  A    between atoms: C_7  and  N_13
REMARK    3  A    between atoms: C_8  and  C_34
REMARK    4  A    between atoms: C_9  and  C_36
REMARK    5  A    between atoms: S_32  and  C_33
REMARK    6  A    between atoms: C_37  and  S_38
REMARK    7  A    between atoms: S_38  and  S_39
REMARK                            x       y       z     vdW  Elec       q    Type
REMARK                         _______ _______ _______ _____ _____    ______ ____
ROOT
ATOM      1  C   UNL     1      57.243 165.480  41.054  0.00  0.00    +0.032 C 
ATOM      2  C   UNL     1      56.830 164.374  41.640  0.00  0.00    +0.042 C 
ATOM      3  C   UNL     1      57.674 163.187  41.520  0.00  0.00    +0.196 C 
ATOM      4  O   UNL     1      57.281 162.137  42.076  0.00  0.00    -0.287 OA
ATOM      5  C   UNL     1      58.938 163.203  40.779  0.00  0.00    +0.043 C 
ATOM      6  C   UNL     1      59.372 164.361  40.165  0.00  0.00    +0.055 C 
ATOM      7  C   UNL     1      60.541 164.418  39.466  0.00  0.00    +0.054 C 
ATOM      8  C   UNL     1      61.278 163.215  39.414  0.00  0.00    +0.056 C 
ATOM      9  C   UNL     1      60.905 162.043  39.998  0.00  0.00    +0.005 C 
ATOM     10  C   UNL     1      59.686 162.088  40.693  0.00  0.00    +0.003 C 
ATOM     11  C   UNL     1      58.509 165.516  40.306  0.00  0.00    +0.194 C 
ATOM     12  O   UNL     1      58.831 166.580  39.787  0.00  0.00    -0.287 OA
ENDROOT
BRANCH   7  13
ATOM     13  N   UNL     1      61.021 165.532  38.879  0.00  0.00    -0.309 N 
ATOM     14  C   UNL     1      60.661 166.133  37.721  0.00  0.00    +0.077 C 
ATOM     15  C   UNL     1      61.088 167.568  37.741  0.00  0.00    +0.026 C 
ATOM     16  C   UNL     1      62.550 167.655  37.695  0.00  0.00    +0.061 C 
ATOM     17  C   UNL     1      63.211 169.006  37.652  0.00  0.00    +0.170 C 
ATOM     18  O   UNL     1      64.421 168.634  36.933  0.00  0.00    -0.479 OA
ATOM     19  C   UNL     1      64.081 167.632  36.001  0.00  0.00    +0.134 C 
ATOM     20  C   UNL     1      62.927 167.039  36.422  0.00  0.00    +0.011 C 
ATOM     21  C   UNL     1      62.247 166.044  35.825  0.00  0.00    -0.021 C 
ATOM     22  C   UNL     1      62.790 165.565  34.648  0.00  0.00    -0.004 C 
ATOM     23  C   UNL     1      63.969 166.099  34.132  0.00  0.00    +0.003 C 
ATOM     24  C   UNL     1      64.601 167.135  34.825  0.00  0.00    +0.037 C 
ATOM     25  C   UNL     1      60.937 165.553  36.393  0.00  0.00    +0.046 C 
ATOM     26  C   UNL     1      62.377 169.990  36.928  0.00  0.00    +0.044 C 
ATOM     27  C   UNL     1      61.166 169.476  36.238  0.00  0.00    +0.004 C 
ATOM     28  C   UNL     1      60.290 168.563  37.052  0.00  0.00    +0.002 C 
ATOM     29  C   UNL     1      63.085 166.832  38.855  0.00  0.00    +0.029 C 
ATOM     30  C   UNL     1      61.887 166.370  39.684  0.00  0.00    +0.091 C 
ENDBRANCH   7  13
BRANCH   8  31
ATOM     31  C   UNL     1      62.488 163.299  38.644  0.00  0.00    +0.235 C 
ATOM     32  O   UNL     1      62.451 162.935  37.441  0.00  0.00    -0.283 OA
ENDBRANCH   8  31
BRANCH   9  33
ATOM     33  C   UNL     1      61.606 160.801  40.044  0.00  0.00    +0.008 C 
ATOM     34  C   UNL     1      62.661 160.263  40.497  0.00  0.00    +0.042 C 
BRANCH  34  35
ATOM     35  S   UNL     1      63.960 160.952  41.445  0.00  0.00    -0.059 S 
BRANCH  35  36
ATOM     36  S   UNL     1      65.694 161.132  40.224  0.00  0.00    -0.105 S 
ATOM     37  H   UNL     1      66.709 161.667  40.954  0.00  0.00    +0.114 HD
ENDBRANCH  35  36
ENDBRANCH  34  35
ENDBRANCH   9  33
BRANCH   1  38
ATOM     38  C   UNL     1      56.459 166.708  41.128  0.00  0.00    +0.106 C 
BRANCH  38  40
ATOM     39  F   UNL     1      54.084 168.192  41.936  0.00  0.00    -0.179 F 
ATOM     40  S   UNL     1      55.005 166.707  41.862  0.00  0.00    -0.033 S 
ATOM     41  H   UNL     1      54.234 165.793  41.214  0.00  0.00    +0.127 HD
ENDBRANCH  38  40
ENDBRANCH   1  38
TORSDOF 7
