REMARK  Name = =
REMARK  4 active torsions:
REMARK  status: ('A' for Active; 'I' for Inactive)
REMARK    1  A    between atoms: C_1  and  N_11
REMARK    2  A    between atoms: C_8  and  O_21
REMARK    3  A    between atoms: C_9  and  O_20
REMARK    4  A    between atoms: C_12  and  C_14
REMARK                            x       y       z     vdW  Elec       q    Type
REMARK                         _______ _______ _______ _____ _____    ______ ____
ROOT
ATOM      1  C   UNL     1      49.417 159.925  32.579  0.00  0.00    +0.153 C 
ATOM      2  N   UNL     1      50.420 160.388  33.467  0.00  0.00    -0.279 NA
ATOM      3  C   UNL     1      50.184 161.618  34.124  0.00  0.00    +0.075 C 
ATOM      4  C   UNL     1      48.781 162.106  34.140  0.00  0.00    +0.043 C 
ATOM      5  C   UNL     1      48.262 162.105  32.756  0.00  0.00    -0.019 C 
ATOM      6  C   UNL     1      48.587 161.008  31.984  0.00  0.00    +0.010 C 
ATOM      7  C   UNL     1      48.128 160.957  30.685  0.00  0.00    +0.038 C 
ATOM      8  C   UNL     1      47.355 161.970  30.137  0.00  0.00    +0.167 C 
ATOM      9  C   UNL     1      47.055 163.056  30.957  0.00  0.00    +0.167 C 
ATOM     10  C   UNL     1      47.494 163.146  32.262  0.00  0.00    +0.035 C 
ATOM     11  H   UNL     1      51.282 160.487  32.931  0.00  0.00    +0.125 HD
ENDROOT
BRANCH   1  12
ATOM     12  N   UNL     1      50.105 159.282  31.453  0.00  0.00    -0.286 N 
ATOM     13  C   UNL     1      50.001 157.899  31.192  0.00  0.00    +0.247 C 
ATOM     14  O   UNL     1      49.284 157.226  31.977  0.00  0.00    -0.270 OA
ATOM     15  H   UNL     1      50.660 159.836  30.858  0.00  0.00    +0.151 HD
BRANCH  13  16
ATOM     16  C   UNL     1      50.696 157.267  30.059  0.00  0.00    +0.053 C 
ATOM     17  C   UNL     1      51.862 157.771  29.530  0.00  0.00    +0.005 C 
ATOM     18  C   UNL     1      52.470 157.120  28.452  0.00  0.00    +0.000 C 
ATOM     19  C   UNL     1      51.938 155.979  27.894  0.00  0.00    +0.000 C 
ATOM     20  C   UNL     1      50.771 155.490  28.437  0.00  0.00    +0.000 C 
ATOM     21  C   UNL     1      50.155 156.110  29.495  0.00  0.00    +0.005 C 
ENDBRANCH  13  16
ENDBRANCH   1  12
BRANCH   9  22
ATOM     22  O   UNL     1      46.281 164.075  30.418  0.00  0.00    -0.503 OA
ATOM     23  H   UNL     1      45.981 164.017  29.532  0.00  0.00    +0.292 HD
ENDBRANCH   9  22
BRANCH   8  24
ATOM     24  O   UNL     1      46.899 161.905  28.825  0.00  0.00    -0.503 OA
ATOM     25  H   UNL     1      47.112 161.165  28.291  0.00  0.00    +0.292 HD
ENDBRANCH   8  24
TORSDOF 4
