REMARK  Name = =
REMARK  5 active torsions:
REMARK  status: ('A' for Active; 'I' for Inactive)
REMARK    1  A    between atoms: N_1  and  C_9
REMARK    2  A    between atoms: C_2  and  C_27
REMARK    3  A    between atoms: C_9  and  N_25
REMARK    4  A    between atoms: C_17  and  C_19
REMARK    5  A    between atoms: C_27  and  C_33
REMARK                            x       y       z     vdW  Elec       q    Type
REMARK                         _______ _______ _______ _____ _____    ______ ____
ROOT
ATOM      1  N   UNL     1     -13.204 -43.183  29.608  0.00  0.00    -0.266 N 
ATOM      2  C   UNL     1     -14.285 -42.961  28.767  0.00  0.00    +0.081 C 
ATOM      3  C   UNL     1     -15.450 -43.896  29.194  0.00  0.00    +0.020 C 
ATOM      4  C   UNL     1     -16.372 -43.279  30.174  0.00  0.00    +0.002 C 
ATOM      5  C   UNL     1     -15.770 -42.352  31.169  0.00  0.00    +0.010 C 
ATOM      6  C   UNL     1     -14.648 -43.039  31.893  0.00  0.00    +0.085 C 
ATOM      7  C   UNL     1     -13.480 -43.299  31.052  0.00  0.00    +0.227 C 
ATOM      8  O   UNL     1     -12.500 -43.718  31.749  0.00  0.00    -0.275 OA
ENDROOT
BRANCH   1   9
ATOM      9  C   UNL     1     -11.803 -43.256  29.453  0.00  0.00    +0.145 C 
ATOM     10  C   UNL     1     -11.431 -44.757  29.587  0.00  0.00    +0.038 C 
ATOM     11  C   UNL     1     -12.020 -45.513  28.447  0.00  0.00    +0.004 C 
ATOM     12  C   UNL     1     -10.961 -45.814  27.370  0.00  0.00    +0.000 C 
ATOM     13  C   UNL     1     -10.039 -46.857  28.010  0.00  0.00    +0.000 C 
ATOM     14  C   UNL     1      -9.500 -46.265  29.270  0.00  0.00    +0.000 C 
ATOM     15  C   UNL     1      -9.922 -44.836  29.483  0.00  0.00    +0.003 C 
ATOM     16  C   UNL     1      -9.427 -44.393  30.865  0.00  0.00    +0.001 C 
ATOM     17  C   UNL     1      -9.791 -42.932  30.977  0.00  0.00    +0.010 C 
ATOM     18  C   UNL     1     -11.188 -42.580  30.670  0.00  0.00    +0.042 C 
BRANCH  17  19
ATOM     19  C   UNL     1      -9.489 -42.524  32.391  0.00  0.00    +0.058 C 
ATOM     20  C   UNL     1     -10.287 -42.020  33.308  0.00  0.00    +0.008 C 
ATOM     21  C   UNL     1      -9.563 -41.761  34.577  0.00  0.00    +0.008 C 
ATOM     22  C   UNL     1      -8.110 -41.955  34.289  0.00  0.00    +0.065 C 
ATOM     23  C   UNL     1      -8.138 -42.648  32.973  0.00  0.00    +0.150 C 
ATOM     24  O   UNL     1      -7.142 -43.229  32.486  0.00  0.00    -0.296 OA
ENDBRANCH  17  19
BRANCH   9  25
ATOM     25  N   UNL     1     -11.156 -42.955  28.274  0.00  0.00    -0.252 NA
ATOM     26  C   UNL     1     -10.403 -42.060  27.882  0.00  0.00    +0.115 C 
ENDBRANCH   9  25
ENDBRANCH   1   9
BRANCH   2  27
ATOM     27  C   UNL     1     -14.320 -42.944  27.310  0.00  0.00    +0.038 C 
ATOM     28  C   UNL     1     -14.165 -44.258  26.690  0.00  0.00    +0.024 C 
ATOM     29  C   UNL     1     -13.889 -44.277  25.215  0.00  0.00    +0.089 C 
ATOM     30  N   UNL     1     -13.945 -43.001  24.574  0.00  0.00    -0.218 NA
ATOM     31  C   UNL     1     -13.110 -42.061  25.278  0.00  0.00    +0.089 C 
ATOM     32  C   UNL     1     -13.504 -41.822  26.683  0.00  0.00    +0.024 C 
BRANCH  27  33
ATOM     33  C   UNL     1     -15.731 -42.445  26.955  0.00  0.00    -0.021 C 
ATOM     34  C   UNL     1     -16.254 -42.540  25.710  0.00  0.00    -0.007 C 
ATOM     35  C   UNL     1     -17.524 -42.071  25.442  0.00  0.00    -0.009 C 
ATOM     36  C   UNL     1     -18.264 -41.504  26.440  0.00  0.00    -0.009 C 
ATOM     37  C   UNL     1     -17.726 -41.413  27.693  0.00  0.00    -0.004 C 
ATOM     38  C   UNL     1     -16.459 -41.876  27.979  0.00  0.00    -0.005 C 
ATOM     39  C   UNL     1     -19.553 -41.105  25.878  0.00  0.00    +0.096 C 
ATOM     40  N   UNL     1     -19.566 -41.483  24.501  0.00  0.00    -0.290 NA
ATOM     41  C   UNL     1     -18.288 -42.073  24.167  0.00  0.00    +0.096 C 
ATOM     42  H   UNL     1     -19.725 -40.659  23.921  0.00  0.00    +0.124 HD
ENDBRANCH  27  33
ENDBRANCH   2  27
TORSDOF 5
