MODEL 1
REMARK VINA RESULT:    -9.374      0.000      0.000
REMARK INTER + INTRA:         -17.069
REMARK INTER:                 -14.855
REMARK INTRA:                  -2.214
REMARK UNBOUND:                -2.214
REMARK  Name = =
REMARK  11 active torsions:
REMARK  status: ('A' for Active; 'I' for Inactive)
REMARK    1  A    between atoms: C_3  and  O_34
REMARK    2  A    between atoms: C_6  and  O_14
REMARK    3  A    between atoms: C_7  and  N_8
REMARK    4  A    between atoms: O_14  and  C_15
REMARK    5  A    between atoms: C_15  and  C_17
REMARK    6  A    between atoms: C_18  and  O_33
REMARK    7  A    between atoms: C_22  and  C_23
REMARK    8  A    between atoms: O_34  and  N_35
REMARK    9  A    between atoms: N_35  and  O_38
REMARK   10  A    between atoms: O_38  and  C_39
REMARK   11  A    between atoms: C_39  and  O_41
REMARK                            x       y       z     vdW  Elec       q    Type
REMARK                         _______ _______ _______ _____ _____    ______ ____
ROOT
ATOM      1 CL   UNL     1       3.557  -3.492  25.431  0.00  0.00    -0.078 Cl
ATOM      2  C   UNL     1       2.493  -2.746  26.613  0.00  0.00    +0.111 C 
ATOM      3  C   UNL     1       2.412  -1.342  26.603  0.00  0.00    +0.186 C 
ATOM      4  C   UNL     1       1.604  -0.691  27.496  0.00  0.00    +0.044 C 
ATOM      5  C   UNL     1       0.880  -1.470  28.394  0.00  0.00    +0.042 C 
ATOM      6  C   UNL     1       0.941  -2.833  28.423  0.00  0.00    +0.163 C 
ATOM      7  C   UNL     1       1.774  -3.483  27.505  0.00  0.00    +0.097 C 
ENDROOT
BRANCH   7   8
ATOM      8  N   UNL     1       1.851  -4.890  27.492  0.00  0.00    -0.304 N 
ATOM      9  C   UNL     1       2.947  -5.546  28.135  0.00  0.00    +0.091 C 
ATOM     10  C   UNL     1       2.645  -6.918  28.669  0.00  0.00    +0.021 C 
ATOM     11  C   UNL     1       1.861  -7.781  27.735  0.00  0.00    +0.004 C 
ATOM     12  C   UNL     1       1.292  -7.060  26.544  0.00  0.00    +0.021 C 
ATOM     13  C   UNL     1       0.822  -5.666  26.852  0.00  0.00    +0.091 C 
ENDBRANCH   7   8
BRANCH   6  14
ATOM     14  O   UNL     1       0.212  -3.633  29.328  0.00  0.00    -0.420 OA
BRANCH  14  15
ATOM     15  C   UNL     1      -1.167  -3.785  29.169  0.00  0.00    +0.348 C 
ATOM     16  O   UNL     1      -1.583  -3.338  28.089  0.00  0.00    -0.244 OA
BRANCH  15  17
ATOM     17  C   UNL     1      -2.041  -4.393  30.147  0.00  0.00    +0.106 C 
ATOM     18  C   UNL     1      -2.962  -3.550  30.767  0.00  0.00    +0.140 C 
ATOM     19  C   UNL     1      -3.903  -4.176  31.607  0.00  0.00    +0.037 C 
ATOM     20  C   UNL     1      -3.936  -5.519  31.821  0.00  0.00    +0.003 C 
ATOM     21  C   UNL     1      -3.011  -6.286  31.189  0.00  0.00    -0.004 C 
ATOM     22  C   UNL     1      -2.038  -5.769  30.348  0.00  0.00    -0.009 C 
BRANCH  22  23
ATOM     23  C   UNL     1      -0.935  -6.671  29.848  0.00  0.00    +0.049 C 
ATOM     24  C   UNL     1      -0.074  -6.999  30.993  0.00  0.00    +0.031 C 
ATOM     25  C   UNL     1       1.014  -6.171  31.463  0.00  0.00    +0.010 C 
ATOM     26  C   UNL     1       1.715  -6.787  32.663  0.00  0.00    +0.026 C 
ATOM     27  C   UNL     1       0.761  -7.171  33.716  0.00  0.00    -0.026 C 
ATOM     28  C   UNL     1      -0.383  -7.724  33.376  0.00  0.00    -0.009 C 
ATOM     29  C   UNL     1      -0.659  -7.935  31.962  0.00  0.00    -0.022 C 
ATOM     30  C   UNL     1      -1.424  -8.951  31.582  0.00  0.00    -0.005 C 
ATOM     31  C   UNL     1      -1.686  -9.127  30.146  0.00  0.00    -0.005 C 
ATOM     32  C   UNL     1      -1.504  -7.967  29.291  0.00  0.00    -0.022 C 
ENDBRANCH  22  23
BRANCH  18  33
ATOM     33  O   UNL     1      -3.025  -2.204  30.635  0.00  0.00    -0.505 OA
ATOM     34  H   UNL     1      -2.677  -1.651  31.306  0.00  0.00    +0.292 HD
ENDBRANCH  18  33
ENDBRANCH  15  17
ENDBRANCH  14  15
ENDBRANCH   6  14
BRANCH   3  35
ATOM     35  O   UNL     1       3.172  -0.669  25.668  0.00  0.00    -0.347 OA
BRANCH  35  36
ATOM     36  N   UNL     1       2.631  -0.278  24.489  0.00  0.00    +0.059 N 
ATOM     37  C   UNL     1       3.483   0.098  23.425  0.00  0.00    +0.378 C 
ATOM     38  O   UNL     1       4.706   0.084  23.567  0.00  0.00    -0.258 OA
BRANCH  36  39
ATOM     39  O   UNL     1       1.250  -0.236  24.296  0.00  0.00    -0.275 OA
BRANCH  39  40
ATOM     40  C   UNL     1       0.632  -1.331  23.725  0.00  0.00    +0.533 C 
ATOM     41  O   UNL     1      -0.636  -1.354  23.723  0.00  0.00    -0.201 OA
BRANCH  40  42
ATOM     42  O   UNL     1       1.288  -2.394  23.158  0.00  0.00    -0.448 OA
ATOM     43  H   UNL     1       1.430  -2.418  22.231  0.00  0.00    +0.299 HD
ENDBRANCH  40  42
ENDBRANCH  39  40
ENDBRANCH  36  39
ENDBRANCH  35  36
ENDBRANCH   3  35
TORSDOF 11
ENDMDL
