REMARK  Name = =
REMARK  3 active torsions:
REMARK  status: ('A' for Active; 'I' for Inactive)
REMARK    1  A    between atoms: C_1  and  S_13
REMARK    2  A    between atoms: S_13  and  C_15
REMARK    3  A    between atoms: S_13  and  C_19
REMARK                            x       y       z     vdW  Elec       q    Type
REMARK                         _______ _______ _______ _____ _____    ______ ____
ROOT
ATOM      1  C   UNL     1     -16.540 -42.253  26.354  0.00  0.00    +0.056 C 
ATOM      2  C   UNL     1     -17.284 -42.388  27.457  0.00  0.00    +0.050 C 
ATOM      3  C   UNL     1     -18.675 -42.045  27.537  0.00  0.00    +0.196 C 
ATOM      4  O   UNL     1     -19.378 -42.173  28.580  0.00  0.00    -0.287 OA
ATOM      5  C   UNL     1     -19.323 -41.513  26.333  0.00  0.00    +0.042 C 
ATOM      6  C   UNL     1     -18.601 -41.350  25.160  0.00  0.00    +0.042 C 
ATOM      7  C   UNL     1     -19.194 -40.850  24.015  0.00  0.00    +0.003 C 
ATOM      8  C   UNL     1     -20.510 -40.508  24.029  0.00  0.00    +0.000 C 
ATOM      9  C   UNL     1     -21.222 -40.672  25.200  0.00  0.00    +0.000 C 
ATOM     10  C   UNL     1     -20.638 -41.168  26.339  0.00  0.00    +0.003 C 
ATOM     11  C   UNL     1     -17.188 -41.720  25.152  0.00  0.00    +0.200 C 
ATOM     12  O   UNL     1     -16.521 -41.575  24.081  0.00  0.00    -0.286 OA
ENDROOT
BRANCH   1  13
ATOM     13  S   UNL     1     -14.929 -42.678  26.358  0.00  0.00    -0.120 S 
ATOM     14  H   UNL     1     -14.272 -41.581  26.820  0.00  0.00    +0.098 HD
BRANCH  13  16
ATOM     15  O   UNL     1     -14.565 -43.314  28.827  0.00  0.00    -0.320 OA
ATOM     16  C   UNL     1     -14.388 -43.696  27.475  0.00  0.00    +0.180 C 
ATOM     17  C   UNL     1     -12.887 -43.579  27.790  0.00  0.00    +0.104 C 
ATOM     18  C   UNL     1     -13.381 -43.994  29.111  0.00  0.00    +0.254 C 
ATOM     19  O   UNL     1     -12.878 -44.674  30.042  0.00  0.00    -0.192 OA
ENDBRANCH  13  16
BRANCH  13  20
ATOM     20  C   UNL     1     -14.446 -43.024  24.751  0.00  0.00    +0.251 C 
ATOM     21  O   UNL     1     -13.415 -42.486  24.320  0.00  0.00    -0.277 OA
ENDBRANCH  13  20
ENDBRANCH   1  13
TORSDOF 3
