REMARK  Name = =
REMARK  0 active torsions:
REMARK  status: ('A' for Active; 'I' for Inactive)
REMARK                            x       y       z     vdW  Elec       q    Type
REMARK                         _______ _______ _______ _____ _____    ______ ____
ROOT
ATOM      1  N   UNL     1      52.606 155.850  29.119  0.00  0.00    -0.084 NA
ATOM      2  O   UNL     1      52.081 155.330  28.187  0.00  0.00    -0.152 OA
ATOM      3  H   UNL     1      53.571 155.730  29.271  0.00  0.00    +0.236 HD
ENDROOT
TORSDOF 0
