REMARK  Name = =
REMARK  1 active torsions:
REMARK  status: ('A' for Active; 'I' for Inactive)
REMARK    1  A    between atoms: S_1  and  N_6
REMARK                            x       y       z     vdW  Elec       q    Type
REMARK                         _______ _______ _______ _____ _____    ______ ____
ROOT
ATOM      1  S   UNL     1      52.017 154.523  27.164  0.00  0.00    -0.024 S 
ATOM      2  N   UNL     1      52.916 152.966  27.500  0.00  0.00    -0.215 NA
ATOM      3  C   UNL     1      53.423 152.643  26.384  0.00  0.00    +0.107 C 
ATOM      4  C   UNL     1      53.192 153.486  25.258  0.00  0.00    +0.029 C 
ATOM      5  C   UNL     1      52.470 154.549  25.423  0.00  0.00    +0.049 C 
ATOM      6  H   UNL     1      50.691 154.618  27.451  0.00  0.00    +0.129 HD
ENDROOT
BRANCH   1   7
ATOM      7  N   UNL     1      52.647 155.863  28.128  0.00  0.00    +0.013 NA
ATOM      8  O   UNL     1      51.923 156.187  29.015  0.00  0.00    -0.088 OA
ENDBRANCH   1   7
TORSDOF 1
