REMARK  Name = =
REMARK  0 active torsions:
REMARK  status: ('A' for Active; 'I' for Inactive)
REMARK                            x       y       z     vdW  Elec       q    Type
REMARK                         _______ _______ _______ _____ _____    ______ ____
ROOT
ATOM      1  N   UNL     1      52.089 155.953  28.302  0.00  0.00    -0.266 N 
ATOM      2  C   UNL     1      51.828 154.788  28.909  0.00  0.00    +0.081 C 
ATOM      3  C   UNL     1      52.463 153.816  28.159  0.00  0.00    +0.081 C 
ATOM      4  N   UNL     1      53.092 154.427  27.114  0.00  0.00    -0.266 N 
ATOM      5  C   UNL     1      52.852 155.744  27.219  0.00  0.00    +0.308 C 
ATOM      6  O   UNL     1      53.296 156.587  26.401  0.00  0.00    -0.252 OA
ATOM      7  H   UNL     1      51.768 156.833  28.606  0.00  0.00    +0.156 HD
ATOM      8  H   UNL     1      53.623 153.985  26.413  0.00  0.00    +0.156 HD
ENDROOT
TORSDOF 0
