REMARK  Name = =
REMARK  0 active torsions:
REMARK  status: ('A' for Active; 'I' for Inactive)
REMARK                            x       y       z     vdW  Elec       q    Type
REMARK                         _______ _______ _______ _____ _____    ______ ____
ROOT
ATOM      1  N   UNL     1      52.944 155.156  28.589  0.00  0.00    -0.295 NA
ATOM      2  C   UNL     1      51.685 154.368  28.781  0.00  0.00    +0.086 C 
ATOM      3  C   UNL     1      52.826 153.862  28.031  0.00  0.00    +0.086 C 
ATOM      4  H   UNL     1      53.571 155.316  29.378  0.00  0.00    +0.123 HD
ENDROOT
TORSDOF 0
