REMARK  Name = =
REMARK  1 active torsions:
REMARK  status: ('A' for Active; 'I' for Inactive)
REMARK    1  A    between atoms: C_1  and  N_7
REMARK                            x       y       z     vdW  Elec       q    Type
REMARK                         _______ _______ _______ _____ _____    ______ ____
ROOT
ATOM      1  C   UNL     1      52.089 155.920  29.163  0.00  0.00    +0.118 C 
ATOM      2  N   UNL     1      50.657 155.951  29.142  0.00  0.00    -0.272 NA
ATOM      3  C   UNL     1      50.096 156.850  30.096  0.00  0.00    +0.143 C 
ATOM      4  N   UNL     1      50.603 158.178  30.069  0.00  0.00    -0.284 NA
ATOM      5  C   UNL     1      51.754 158.412  29.276  0.00  0.00    +0.072 C 
ATOM      6  C   UNL     1      52.719 157.281  29.159  0.00  0.00    +0.050 C 
ATOM      7  H   UNL     1      50.310 155.012  29.340  0.00  0.00    +0.126 HD
ATOM      8  H   UNL     1      50.832 158.439  31.028  0.00  0.00    +0.125 HD
ENDROOT
BRANCH   1   9
ATOM      9  N   UNL     1      52.653 155.157  28.087  0.00  0.00    -0.259 NA
ATOM     10  C   UNL     1      51.829 154.353  27.226  0.00  0.00    +0.091 C 
ATOM     11  C   UNL     1      52.825 153.735  28.192  0.00  0.00    +0.091 C 
ENDBRANCH   1   9
TORSDOF 1
