REMARK  Name = =
REMARK  2 active torsions:
REMARK  status: ('A' for Active; 'I' for Inactive)
REMARK    1  A    between atoms: C_1  and  N_8
REMARK    2  A    between atoms: C_4  and  O_14
REMARK                            x       y       z     vdW  Elec       q    Type
REMARK                         _______ _______ _______ _____ _____    ______ ____
ROOT
ATOM      1  C   UNL     1      51.603 157.029  29.289  0.00  0.00    +0.060 C 
ATOM      2  C   UNL     1      50.357 157.282  29.784  0.00  0.00    +0.025 C 
ATOM      3  C   UNL     1      49.990 158.510  30.315  0.00  0.00    +0.069 C 
ATOM      4  C   UNL     1      50.924 159.531  30.349  0.00  0.00    +0.140 C 
ATOM      5  C   UNL     1      52.196 159.271  29.843  0.00  0.00    +0.038 C 
ATOM      6  C   UNL     1      52.533 158.046  29.323  0.00  0.00    +0.018 C 
ATOM      7 BR   UNL     1      48.237 158.796  30.988  0.00  0.00    -0.046 Br
ENDROOT
BRANCH   1   8
ATOM      8  N   UNL     1      51.887 155.730  28.761  0.00  0.00    -0.219 N 
ATOM      9  C   UNL     1      51.659 154.546  29.347  0.00  0.00    +0.090 C 
ATOM     10  C   UNL     1      52.080 153.555  28.495  0.00  0.00    +0.082 C 
ATOM     11  N   UNL     1      52.561 154.155  27.396  0.00  0.00    -0.265 N 
ATOM     12  C   UNL     1      52.442 155.483  27.563  0.00  0.00    +0.315 C 
ATOM     13  O   UNL     1      52.796 156.365  26.724  0.00  0.00    -0.252 OA
ATOM     14  H   UNL     1      52.935 153.702  26.606  0.00  0.00    +0.157 HD
ENDBRANCH   1   8
BRANCH   4  15
ATOM     15  O   UNL     1      50.612 160.779  30.869  0.00  0.00    -0.505 OA
ATOM     16  H   UNL     1      49.754 160.945  31.207  0.00  0.00    +0.292 HD
ENDBRANCH   4  15
TORSDOF 2
