REMARK  Name = =
REMARK  4 active torsions:
REMARK  status: ('A' for Active; 'I' for Inactive)
REMARK    1  A    between atoms: C_1  and  N_8
REMARK    2  A    between atoms: C_2  and  C_14
REMARK    3  A    between atoms: C_4  and  O_18
REMARK    4  A    between atoms: C_15  and  C_16
REMARK                            x       y       z     vdW  Elec       q    Type
REMARK                         _______ _______ _______ _____ _____    ______ ____
ROOT
ATOM      1  C   UNL     1      51.781 155.917  28.846  0.00  0.00    +0.060 C 
ATOM      2  C   UNL     1      52.359 155.537  27.656  0.00  0.00    +0.023 C 
ATOM      3  C   UNL     1      52.397 154.150  27.365  0.00  0.00    +0.069 C 
ATOM      4  C   UNL     1      51.873 153.252  28.250  0.00  0.00    +0.140 C 
ATOM      5  C   UNL     1      51.293 153.648  29.448  0.00  0.00    +0.038 C 
ATOM      6  C   UNL     1      51.251 154.961  29.736  0.00  0.00    +0.018 C 
ATOM      7 BR   UNL     1      53.178 153.524  25.738  0.00  0.00    -0.046 Br
ENDROOT
BRANCH   1   8
ATOM      8  N   UNL     1      51.668 157.263  29.279  0.00  0.00    -0.219 N 
ATOM      9  C   UNL     1      52.607 158.223  29.293  0.00  0.00    +0.090 C 
ATOM     10  C   UNL     1      52.081 159.378  29.857  0.00  0.00    +0.082 C 
ATOM     11  N   UNL     1      50.822 159.085  30.172  0.00  0.00    -0.265 N 
ATOM     12  C   UNL     1      50.561 157.794  29.823  0.00  0.00    +0.315 C 
ATOM     13  O   UNL     1      49.436 157.255  30.012  0.00  0.00    -0.252 OA
ATOM     14  H   UNL     1      50.180 159.703  30.591  0.00  0.00    +0.157 HD
ENDBRANCH   1   8
BRANCH   2  15
ATOM     15  C   UNL     1      52.931 156.405  26.671  0.00  0.00    +0.002 C 
ATOM     16  C   UNL     1      53.851 156.187  25.777  0.00  0.00    +0.000 C 
BRANCH  16  17
ATOM     17  C   UNL     1      54.252 157.291  24.872  0.00  0.00    +0.000 C 
ATOM     18  C   UNL     1      54.994 157.024  23.821  0.00  0.00    +0.000 C 
ENDBRANCH  16  17
ENDBRANCH   2  15
BRANCH   4  19
ATOM     19  O   UNL     1      51.927 151.883  27.928  0.00  0.00    -0.505 OA
ATOM     20  H   UNL     1      52.316 151.606  27.122  0.00  0.00    +0.292 HD
ENDBRANCH   4  19
TORSDOF 4
