REMARK  Name = =
REMARK  2 active torsions:
REMARK  status: ('A' for Active; 'I' for Inactive)
REMARK    1  A    between atoms: C_1  and  C_7
REMARK    2  A    between atoms: C_1  and  N_13
REMARK                            x       y       z     vdW  Elec       q    Type
REMARK                         _______ _______ _______ _____ _____    ______ ____
ROOT
ATOM      1  C   UNL     1      52.810 155.412  27.845  0.00  0.00    +0.092 C 
ATOM      2  N   UNL     1      53.356 154.303  28.651  0.00  0.00    -0.274 NA
ATOM      3  C   UNL     1      52.537 153.120  28.545  0.00  0.00    +0.143 C 
ATOM      4  N   UNL     1      51.291 153.407  29.248  0.00  0.00    -0.284 NA
ATOM      5  C   UNL     1      50.616 154.532  28.663  0.00  0.00    +0.072 C 
ATOM      6  C   UNL     1      51.371 155.004  27.468  0.00  0.00    +0.047 C 
ATOM      7  H   UNL     1      53.396 154.592  29.628  0.00  0.00    +0.126 HD
ATOM      8  H   UNL     1      51.499 153.614  30.225  0.00  0.00    +0.125 HD
ENDROOT
BRANCH   1   9
ATOM      9  C   UNL     1      53.579 155.371  26.565  0.00  0.00    +0.027 C 
ATOM     10  C   UNL     1      53.412 156.524  25.644  0.00  0.00    +0.003 C 
ATOM     11  C   UNL     1      54.578 156.477  24.644  0.00  0.00    +0.000 C 
ATOM     12  C   UNL     1      54.645 155.138  23.956  0.00  0.00    +0.000 C 
ATOM     13  C   UNL     1      54.700 153.982  24.923  0.00  0.00    +0.000 C 
ATOM     14  C   UNL     1      53.432 154.085  25.789  0.00  0.00    +0.003 C 
ENDBRANCH   1   9
BRANCH   1  15
ATOM     15  N   UNL     1      52.752 156.531  28.604  0.00  0.00    -0.261 NA
ATOM     16  C   UNL     1      51.890 157.591  28.762  0.00  0.00    +0.091 C 
ATOM     17  C   UNL     1      53.415 157.747  28.634  0.00  0.00    +0.091 C 
ENDBRANCH   1  15
TORSDOF 2
