MODEL 1
REMARK VINA RESULT:    -7.661      0.000      0.000
REMARK INTER + INTRA:         -14.754
REMARK INTER:                 -13.260
REMARK INTRA:                  -1.494
REMARK UNBOUND:                -1.494
REMARK  Name = =
REMARK  14 active torsions:
REMARK  status: ('A' for Active; 'I' for Inactive)
REMARK    1  A    between atoms: C_2  and  C_45
REMARK    2  A    between atoms: C_8  and  N_28
REMARK    3  A    between atoms: N_13  and  S_30
REMARK    4  A    between atoms: C_20  and  C_40
REMARK    5  A    between atoms: S_30  and  S_31
REMARK    6  A    between atoms: S_30  and  S_36
REMARK    7  A    between atoms: S_31  and  S_32
REMARK    8  A    between atoms: S_32  and  C_33
REMARK    9  A    between atoms: C_33  and  O_35
REMARK   10  A    between atoms: S_36  and  C_37
REMARK   11  A    between atoms: C_37  and  O_39
REMARK   12  A    between atoms: C_40  and  C_42
REMARK   13  A    between atoms: C_42  and  O_44
REMARK   14  A    between atoms: C_45  and  C_46
REMARK                            x       y       z     vdW  Elec       q    Type
REMARK                         _______ _______ _______ _____ _____    ______ ____
ROOT
ATOM      1  N   UNL     1      -1.401  -5.340  30.178  0.00  0.00    -0.272 NA
ATOM      2  C   UNL     1      -0.917  -6.682  30.218  0.00  0.00    +0.064 C 
ATOM      3  C   UNL     1      -2.044  -7.573  30.637  0.00  0.00    +0.018 C 
ATOM      4  C   UNL     1      -3.091  -6.653  31.212  0.00  0.00    +0.019 C 
ATOM      5  C   UNL     1      -2.553  -5.265  31.036  0.00  0.00    +0.072 C 
ATOM      6  C   UNL     1      -0.382  -7.176  28.893  0.00  0.00    +0.085 C 
ATOM      7  N   UNL     1       1.045  -6.940  28.780  0.00  0.00    -0.276 NA
ATOM      8  C   UNL     1       1.780  -8.094  28.368  0.00  0.00    +0.204 C 
ATOM      9  C   UNL     1       3.088  -7.737  27.705  0.00  0.00    +0.045 C 
ATOM     10  C   UNL     1       2.907  -6.997  26.409  0.00  0.00    +0.005 C 
ATOM     11  C   UNL     1       4.225  -6.473  25.952  0.00  0.00    +0.018 C 
ATOM     12  C   UNL     1       4.388  -4.986  26.147  0.00  0.00    +0.083 C 
ATOM     13  N   UNL     1       4.427  -4.336  24.848  0.00  0.00    -0.229 NA
ATOM     14  C   UNL     1       3.096  -3.887  24.557  0.00  0.00    +0.100 C 
ATOM     15  C   UNL     1       2.994  -2.964  23.391  0.00  0.00    +0.091 C 
ATOM     16  N   UNL     1       2.423  -1.671  23.739  0.00  0.00    -0.266 NA
ATOM     17  C   UNL     1       1.212  -1.807  24.506  0.00  0.00    +0.074 C 
ATOM     18  C   UNL     1       0.072  -1.433  23.585  0.00  0.00    +0.019 C 
ATOM     19  C   UNL     1       0.722  -0.407  22.682  0.00  0.00    +0.026 C 
ATOM     20  C   UNL     1       2.123  -0.971  22.529  0.00  0.00    +0.127 C 
ATOM     21  C   UNL     1       1.260  -0.716  25.583  0.00  0.00    +0.085 C 
ATOM     22  N   UNL     1       0.055  -0.794  26.375  0.00  0.00    -0.295 NA
ATOM     23  C   UNL     1       0.406  -1.397  27.641  0.00  0.00    +0.086 C 
ATOM     24  C   UNL     1      -0.856  -1.534  28.453  0.00  0.00    +0.086 C 
ATOM     25  N   UNL     1      -1.728  -2.577  27.929  0.00  0.00    -0.295 NA
ATOM     26  C   UNL     1      -2.220  -3.436  28.997  0.00  0.00    +0.086 C 
ATOM     27  C   UNL     1      -1.677  -4.858  28.840  0.00  0.00    +0.089 C 
ATOM     28  H   UNL     1       1.396  -6.641  29.690  0.00  0.00    +0.125 HD
ATOM     29  H   UNL     1      -0.640  -1.367  25.896  0.00  0.00    +0.123 HD
ATOM     30  H   UNL     1      -1.205  -3.142  27.261  0.00  0.00    +0.123 HD
ENDROOT
BRANCH   8  31
ATOM     31  N   UNL     1       1.006  -8.898  27.468  0.00  0.00    -0.042 NA
ATOM     32  O   UNL     1       1.252 -10.033  27.300  0.00  0.00    -0.147 OA
ENDBRANCH   8  31
BRANCH  13  33
ATOM     33  S   UNL     1       5.583  -4.449  23.966  0.00  0.00    -0.078 S 
ATOM     34  H   UNL     1       5.532  -3.966  22.696  0.00  0.00    +0.120 HD
BRANCH  33  35
ATOM     35  S   UNL     1       5.788  -5.989  23.458  0.00  0.00    -0.014 S 
BRANCH  35  36
ATOM     36  S   UNL     1       7.222  -7.181  24.080  0.00  0.00    -0.000 S 
BRANCH  36  37
ATOM     37  C   UNL     1       8.245  -6.647  25.441  0.00  0.00    +0.209 C 
ATOM     38  S   UNL     1       7.785  -7.093  26.950  0.00  0.00    -0.003 S 
BRANCH  37  39
ATOM     39  O   UNL     1       9.380  -5.895  25.310  0.00  0.00    -0.495 OA
ATOM     40  H   UNL     1       9.940  -5.760  26.049  0.00  0.00    +0.293 HD
ENDBRANCH  37  39
ENDBRANCH  36  37
ENDBRANCH  35  36
ENDBRANCH  33  35
BRANCH  33  41
ATOM     41  S   UNL     1       6.793  -3.393  24.637  0.00  0.00    -0.010 S 
BRANCH  41  42
ATOM     42  C   UNL     1       6.400  -1.892  25.275  0.00  0.00    +0.209 C 
ATOM     43  S   UNL     1       7.593  -0.734  25.396  0.00  0.00    -0.003 S 
BRANCH  42  44
ATOM     44  O   UNL     1       5.175  -1.413  25.750  0.00  0.00    -0.495 OA
ATOM     45  H   UNL     1       5.095  -1.134  26.641  0.00  0.00    +0.293 HD
ENDBRANCH  42  44
ENDBRANCH  41  42
ENDBRANCH  33  41
ENDBRANCH  13  33
BRANCH  20  46
ATOM     46  C   UNL     1       3.114   0.054  22.219  0.00  0.00    +0.262 C 
ATOM     47  O   UNL     1       2.787   1.060  21.548  0.00  0.00    -0.283 OA
BRANCH  46  48
ATOM     48  C   UNL     1       4.481  -0.077  22.679  0.00  0.00    +0.375 C 
ATOM     49  O   UNL     1       4.939   0.739  23.509  0.00  0.00    -0.242 OA
BRANCH  48  50
ATOM     50  O   UNL     1       5.307  -1.106  22.206  0.00  0.00    -0.475 OA
ATOM     51  H   UNL     1       6.217  -1.115  22.427  0.00  0.00    +0.295 HD
ENDBRANCH  48  50
ENDBRANCH  46  48
ENDBRANCH  20  46
BRANCH   2  52
ATOM     52  C   UNL     1       0.260  -6.746  31.199  0.00  0.00    +0.042 C 
BRANCH  52  53
ATOM     53  C   UNL     1       0.024  -7.745  32.247  0.00  0.00    -0.025 C 
ATOM     54  C   UNL     1       0.733  -7.720  33.365  0.00  0.00    -0.005 C 
ENDBRANCH  52  53
ENDBRANCH   2  52
TORSDOF 14
ENDMDL
