REMARK  Name = =
REMARK  14 active torsions:
REMARK  status: ('A' for Active; 'I' for Inactive)
REMARK    1  A    between atoms: C_2  and  C_45
REMARK    2  A    between atoms: C_8  and  N_28
REMARK    3  A    between atoms: N_13  and  S_30
REMARK    4  A    between atoms: C_20  and  C_40
REMARK    5  A    between atoms: S_30  and  S_31
REMARK    6  A    between atoms: S_30  and  S_36
REMARK    7  A    between atoms: S_31  and  S_32
REMARK    8  A    between atoms: S_32  and  C_33
REMARK    9  A    between atoms: C_33  and  O_35
REMARK   10  A    between atoms: S_36  and  C_37
REMARK   11  A    between atoms: C_37  and  O_39
REMARK   12  A    between atoms: C_40  and  C_42
REMARK   13  A    between atoms: C_42  and  O_44
REMARK   14  A    between atoms: C_45  and  C_46
REMARK                            x       y       z     vdW  Elec       q    Type
REMARK                         _______ _______ _______ _____ _____    ______ ____
ROOT
ATOM      1  N   UNL     1      -6.427  -0.876  31.124  0.00  0.00    -0.272 NA
ATOM      2  C   UNL     1      -5.114  -1.379  31.371  0.00  0.00    +0.064 C 
ATOM      3  C   UNL     1      -5.138  -2.132  32.664  0.00  0.00    +0.018 C 
ATOM      4  C   UNL     1      -6.417  -1.718  33.347  0.00  0.00    +0.019 C 
ATOM      5  C   UNL     1      -7.110  -0.798  32.388  0.00  0.00    +0.072 C 
ATOM      6  C   UNL     1      -4.603  -2.302  30.288  0.00  0.00    +0.085 C 
ATOM      7  N   UNL     1      -3.852  -1.571  29.285  0.00  0.00    -0.276 NA
ATOM      8  C   UNL     1      -2.582  -2.155  28.989  0.00  0.00    +0.204 C 
ATOM      9  C   UNL     1      -2.084  -1.783  27.613  0.00  0.00    +0.045 C 
ATOM     10  C   UNL     1      -2.947  -2.327  26.509  0.00  0.00    +0.005 C 
ATOM     11  C   UNL     1      -2.534  -1.717  25.214  0.00  0.00    +0.018 C 
ATOM     12  C   UNL     1      -3.490  -0.667  24.704  0.00  0.00    +0.083 C 
ATOM     13  N   UNL     1      -4.143  -1.160  23.503  0.00  0.00    -0.229 NA
ATOM     14  C   UNL     1      -5.396  -1.732  23.904  0.00  0.00    +0.100 C 
ATOM     15  C   UNL     1      -6.322  -2.046  22.779  0.00  0.00    +0.091 C 
ATOM     16  N   UNL     1      -7.596  -1.350  22.881  0.00  0.00    -0.266 NA
ATOM     17  C   UNL     1      -8.177  -1.480  24.192  0.00  0.00    +0.074 C 
ATOM     18  C   UNL     1      -9.346  -2.430  24.055  0.00  0.00    +0.019 C 
ATOM     19  C   UNL     1      -9.811  -2.154  22.642  0.00  0.00    +0.026 C 
ATOM     20  C   UNL     1      -8.495  -1.914  21.923  0.00  0.00    +0.127 C 
ATOM     21  C   UNL     1      -8.781  -0.112  24.533  0.00  0.00    +0.085 C 
ATOM     22  N   UNL     1      -9.397  -0.190  25.837  0.00  0.00    -0.295 NA
ATOM     23  C   UNL     1      -8.526   0.491  26.769  0.00  0.00    +0.086 C 
ATOM     24  C   UNL     1      -9.133   0.367  28.142  0.00  0.00    +0.086 C 
ATOM     25  N   UNL     1      -9.022  -0.989  28.664  0.00  0.00    -0.295 NA
ATOM     26  C   UNL     1      -8.550  -0.985  30.042  0.00  0.00    +0.086 C 
ATOM     27  C   UNL     1      -7.170  -1.639  30.142  0.00  0.00    +0.089 C 
ATOM     28  H   UNL     1      -3.700  -0.621  29.624  0.00  0.00    +0.125 HD
ATOM     29  H   UNL     1      -9.507  -1.166  26.112  0.00  0.00    +0.123 HD
ATOM     30  H   UNL     1      -8.364  -1.514  28.088  0.00  0.00    +0.123 HD
ENDROOT
BRANCH   8  31
ATOM     31  N   UNL     1      -2.640  -3.583  29.093  0.00  0.00    -0.042 NA
ATOM     32  O   UNL     1      -3.628  -4.172  28.859  0.00  0.00    -0.147 OA
ENDBRANCH   8  31
BRANCH  13  33
ATOM     33  S   UNL     1      -3.433  -1.274  22.234  0.00  0.00    -0.078 S 
ATOM     34  H   UNL     1      -3.974  -0.770  21.093  0.00  0.00    +0.120 HD
BRANCH  33  35
ATOM     35  S   UNL     1      -3.476  -2.808  21.671  0.00  0.00    -0.014 S 
BRANCH  35  36
ATOM     36  S   UNL     1      -1.935  -3.746  20.890  0.00  0.00    -0.000 S 
BRANCH  36  37
ATOM     37  C   UNL     1      -1.666  -3.628  19.130  0.00  0.00    +0.209 C 
ATOM     38  S   UNL     1      -0.374  -4.424  18.510  0.00  0.00    -0.003 S 
BRANCH  37  39
ATOM     39  O   UNL     1      -2.460  -2.921  18.270  0.00  0.00    -0.495 OA
ATOM     40  H   UNL     1      -3.206  -2.456  18.596  0.00  0.00    +0.293 HD
ENDBRANCH  37  39
ENDBRANCH  36  37
ENDBRANCH  35  36
ENDBRANCH  33  35
BRANCH  33  41
ATOM     41  S   UNL     1      -2.037  -0.246  22.381  0.00  0.00    -0.010 S 
BRANCH  41  42
ATOM     42  C   UNL     1      -0.478  -0.867  22.378  0.00  0.00    +0.209 C 
ATOM     43  S   UNL     1       0.740   0.027  21.675  0.00  0.00    -0.003 S 
BRANCH  42  44
ATOM     44  O   UNL     1       0.006  -2.074  22.892  0.00  0.00    -0.495 OA
ATOM     45  H   UNL     1      -0.579  -2.671  23.315  0.00  0.00    +0.293 HD
ENDBRANCH  42  44
ENDBRANCH  41  42
ENDBRANCH  33  41
ENDBRANCH  13  33
BRANCH  20  46
ATOM     46  C   UNL     1      -8.644  -1.076  20.738  0.00  0.00    +0.262 C 
ATOM     47  O   UNL     1      -9.248  -1.513  19.732  0.00  0.00    -0.283 OA
BRANCH  46  48
ATOM     48  C   UNL     1      -8.096   0.265  20.709  0.00  0.00    +0.375 C 
ATOM     49  O   UNL     1      -7.556   0.738  21.734  0.00  0.00    -0.242 OA
BRANCH  48  50
ATOM     50  O   UNL     1      -8.162   1.048  19.549  0.00  0.00    -0.475 OA
ATOM     51  H   UNL     1      -8.564   0.706  18.775  0.00  0.00    +0.295 HD
ENDBRANCH  48  50
ENDBRANCH  46  48
ENDBRANCH  20  46
BRANCH   2  52
ATOM     52  C   UNL     1      -4.140  -0.196  31.414  0.00  0.00    +0.042 C 
BRANCH  52  53
ATOM     53  C   UNL     1      -4.840   1.076  31.206  0.00  0.00    -0.025 C 
ATOM     54  C   UNL     1      -4.766   1.695  30.038  0.00  0.00    -0.005 C 
ENDBRANCH  52  53
ENDBRANCH   2  52
TORSDOF 14
