MODEL 1
REMARK VINA RESULT:   -10.895      0.000      0.000
REMARK INTER + INTRA:         -13.802
REMARK INTER:                 -12.806
REMARK INTRA:                  -0.996
REMARK UNBOUND:                -0.996
REMARK  Name = =
REMARK  3 active torsions:
REMARK  status: ('A' for Active; 'I' for Inactive)
REMARK    1  A    between atoms: C_1  and  C_18
REMARK    2  A    between atoms: C_4  and  C_29
REMARK    3  A    between atoms: N_22  and  C_23
REMARK                            x       y       z     vdW  Elec       q    Type
REMARK                         _______ _______ _______ _____ _____    ______ ____
ROOT
ATOM      1  C   UNL     1       2.433  -5.137  25.963  0.00  0.00    +0.105 C 
ATOM      2  C   UNL     1       2.976  -6.265  26.503  0.00  0.00    +0.097 C 
ATOM      3  C   UNL     1       2.340  -6.997  27.545  0.00  0.00    +0.020 C 
ATOM      4  C   UNL     1       1.135  -6.511  28.002  0.00  0.00    +0.021 C 
ATOM      5  C   UNL     1       0.647  -5.375  27.425  0.00  0.00    +0.099 C 
ATOM      6  N   UNL     1       1.225  -4.695  26.449  0.00  0.00    -0.244 NA
ATOM      7  C   UNL     1       2.887  -8.125  28.018  0.00  0.00    +0.003 C 
ATOM      8  C   UNL     1       4.093  -8.627  27.527  0.00  0.00    +0.021 C 
ATOM      9  C   UNL     1       4.693  -7.873  26.493  0.00  0.00    +0.099 C 
ATOM     10  N   UNL     1       4.150  -6.774  26.038  0.00  0.00    -0.243 NA
ENDROOT
BRANCH   1  18
ATOM     11  N   UNL     1       2.520  -0.709  22.938  0.00  0.00    -0.224 N 
ATOM     12  C   UNL     1       2.028  -0.694  24.646  0.00  0.00    +0.311 C 
ATOM     13  O   UNL     1       1.473   0.232  24.953  0.00  0.00    -0.252 OA
ATOM     14  N   UNL     1       2.516  -1.864  25.185  0.00  0.00    -0.258 N 
ATOM     15  C   UNL     1       3.128  -1.958  26.516  0.00  0.00    +0.127 C 
ATOM     16  C   UNL     1       4.195  -2.998  26.527  0.00  0.00    +0.164 C 
ATOM     17  O   UNL     1       4.313  -3.854  25.478  0.00  0.00    -0.347 OA
ATOM     18  C   UNL     1       3.115  -4.312  24.887  0.00  0.00    +0.176 C 
ATOM     19  C   UNL     1       2.241  -3.147  24.608  0.00  0.00    +0.131 C 
ATOM     20  C   UNL     1       1.825   0.410  22.584  0.00  0.00    +0.309 C 
ATOM     21  O   UNL     1       0.746   0.909  22.964  0.00  0.00    -0.252 OA
ATOM     22  N   UNL     1       2.544   1.122  21.481  0.00  0.00    -0.264 N 
ATOM     23  H   UNL     1       3.098  -1.317  22.423  0.00  0.00    +0.161 HD
ATOM     24  H   UNL     1       3.424   0.786  21.196  0.00  0.00    +0.153 HD
BRANCH  22  25
ATOM     25  C   UNL     1       2.002   2.269  20.825  0.00  0.00    +0.194 C 
ATOM     26  N   UNL     1       3.044   3.078  20.374  0.00  0.00    -0.270 NA
ATOM     27  C   UNL     1       2.951   3.782  19.162  0.00  0.00    +0.072 C 
ATOM     28  C   UNL     1       2.363   2.895  18.090  0.00  0.00    +0.034 C 
ATOM     29  C   UNL     1       1.082   2.290  18.585  0.00  0.00    +0.072 C 
ATOM     30  N   UNL     1       1.102   1.745  19.847  0.00  0.00    -0.270 NA
ATOM     31  H   UNL     1       3.864   2.476  20.295  0.00  0.00    +0.126 HD
ATOM     32  H   UNL     1       0.161   1.843  20.228  0.00  0.00    +0.126 HD
ENDBRANCH  22  25
ENDBRANCH   1  18
BRANCH   4  33
ATOM     33  C   UNL     1       0.339  -7.181  28.993  0.00  0.00    +0.003 C 
ATOM     34  C   UNL     1      -0.612  -8.095  28.503  0.00  0.00    +0.000 C 
ATOM     35  C   UNL     1      -1.354  -8.807  29.425  0.00  0.00    +0.002 C 
ATOM     36  C   UNL     1      -1.202  -8.649  30.779  0.00  0.00    +0.019 C 
ATOM     37  C   UNL     1      -0.279  -7.763  31.241  0.00  0.00    +0.081 C 
ATOM     38  C   UNL     1       0.516  -7.001  30.357  0.00  0.00    +0.018 C 
ATOM     39  C   UNL     1       1.450  -6.098  30.809  0.00  0.00    +0.003 C 
ATOM     40  C   UNL     1       1.605  -5.937  32.142  0.00  0.00    +0.018 C 
ATOM     41  C   UNL     1       0.857  -6.654  33.039  0.00  0.00    +0.081 C 
ATOM     42  N   UNL     1      -0.073  -7.557  32.562  0.00  0.00    -0.245 NA
ATOM     43  C   UNL     1       1.052  -6.467  34.379  0.00  0.00    +0.019 C 
ATOM     44  C   UNL     1       2.007  -5.553  34.781  0.00  0.00    +0.002 C 
ATOM     45  C   UNL     1       2.761  -4.833  33.907  0.00  0.00    +0.000 C 
ATOM     46  C   UNL     1       2.561  -5.023  32.539  0.00  0.00    +0.001 C 
ENDBRANCH   4  33
TORSDOF 3
ENDMDL
