MODEL 1
REMARK VINA RESULT:    -6.821      0.000      0.000
REMARK INTER + INTRA:         -10.757
REMARK INTER:                  -9.214
REMARK INTRA:                  -1.543
REMARK UNBOUND:                -1.543
REMARK  Name = =
REMARK  6 active torsions:
REMARK  status: ('A' for Active; 'I' for Inactive)
REMARK    1  A    between atoms: C_1  and  O_13
REMARK    2  A    between atoms: C_2  and  O_23
REMARK    3  A    between atoms: O_13  and  C_15
REMARK    4  A    between atoms: N_14  and  C_17
REMARK    5  A    between atoms: C_15  and  C_19
REMARK    6  A    between atoms: O_23  and  N_24
REMARK                            x       y       z     vdW  Elec       q    Type
REMARK                         _______ _______ _______ _____ _____    ______ ____
ROOT
ATOM      1  C   UNL     1      61.860 162.052  38.920  0.00  0.00    +0.225 C 
ATOM      2  C   UNL     1      60.905 161.152  38.801  0.00  0.00    +0.247 C 
ATOM      3  C   UNL     1      59.848 161.281  37.789  0.00  0.00    +0.235 C 
ATOM      4  O   UNL     1      58.924 160.430  37.652  0.00  0.00    -0.283 OA
ATOM      5  C   UNL     1      59.833 162.423  36.884  0.00  0.00    +0.045 C 
ATOM      6  C   UNL     1      60.806 163.366  36.986  0.00  0.00    +0.045 C 
ATOM      7  C   UNL     1      60.794 164.464  36.128  0.00  0.00    +0.003 C 
ATOM      8  C   UNL     1      59.812 164.608  35.179  0.00  0.00    +0.000 C 
ATOM      9  C   UNL     1      58.829 163.645  35.081  0.00  0.00    +0.000 C 
ATOM     10  C   UNL     1      58.832 162.560  35.920  0.00  0.00    +0.003 C 
ATOM     11  C   UNL     1      61.840 163.205  38.004  0.00  0.00    +0.233 C 
ATOM     12  O   UNL     1      62.722 164.099  38.065  0.00  0.00    -0.283 OA
ENDROOT
BRANCH   1  13
ATOM     13  O   UNL     1      62.819 161.896  39.869  0.00  0.00    -0.435 OA
BRANCH  13  15
ATOM     14  N   UNL     1      64.449 160.638  40.847  0.00  0.00    -0.132 NA
ATOM     15  C   UNL     1      63.980 161.190  39.835  0.00  0.00    +0.198 C 
BRANCH  14  17
ATOM     16  N   UNL     1      63.210 161.437  42.850  0.00  0.00    -0.312 N 
ATOM     17  C   UNL     1      64.081 160.521  42.168  0.00  0.00    +0.323 C 
ATOM     18  O   UNL     1      64.512 159.561  42.864  0.00  0.00    -0.251 OA
ATOM     19  H   UNL     1      62.835 162.210  42.370  0.00  0.00    +0.147 HD
ATOM     20  H   UNL     1      62.988 161.292  43.798  0.00  0.00    +0.147 HD
ENDBRANCH  14  17
BRANCH  15  21
ATOM     21  C   UNL     1      64.666 161.116  38.486  0.00  0.00    +0.074 C 
ATOM     22  C   UNL     1      65.704 162.155  38.206  0.00  0.00    +0.009 C 
ATOM     23  C   UNL     1      66.094 160.707  38.548  0.00  0.00    +0.009 C 
ATOM     24  C   UNL     1      66.684 159.877  37.455  0.00  0.00    +0.001 C 
ENDBRANCH  15  21
ENDBRANCH  13  15
ENDBRANCH   1  13
BRANCH   2  25
ATOM     25  O   UNL     1      60.872 160.063  39.623  0.00  0.00    -0.367 OA
BRANCH  25  26
ATOM     26  N   UNL     1      59.950 159.774  40.571  0.00  0.00    -0.062 N 
ATOM     27  C   UNL     1      59.114 158.629  40.483  0.00  0.00    +0.280 C 
ATOM     28  O   UNL     1      59.233 157.887  39.475  0.00  0.00    -0.270 OA
ATOM     29  C   UNL     1      58.134 158.328  41.550  0.00  0.00    +0.159 C 
ATOM     30  N   UNL     1      58.519 158.851  42.828  0.00  0.00    -0.282 NA
ATOM     31  C   UNL     1      58.878 160.237  42.844  0.00  0.00    +0.159 C 
ATOM     32  C   UNL     1      59.773 160.602  41.706  0.00  0.00    +0.280 C 
ATOM     33  O   UNL     1      60.387 161.698  41.780  0.00  0.00    -0.270 OA
ATOM     34  H   UNL     1      59.322 158.315  43.157  0.00  0.00    +0.124 HD
ENDBRANCH  25  26
ENDBRANCH   2  25
TORSDOF 6
ENDMDL
