REMARK  Name = =
REMARK  0 active torsions:
REMARK  status: ('A' for Active; 'I' for Inactive)
REMARK                            x       y       z     vdW  Elec       q    Type
REMARK                         _______ _______ _______ _____ _____    ______ ____
ROOT
ATOM      1  N   UNL     1     -13.788 -44.094  27.075  0.00  0.00    -0.297 NA
ATOM      2  C   UNL     1     -13.048 -42.905  27.407  0.00  0.00    +0.070 C 
ATOM      3  C   UNL     1     -13.944 -42.140  26.448  0.00  0.00    +0.034 C 
ATOM      4  C   UNL     1     -14.882 -43.295  26.517  0.00  0.00    +0.070 C 
ATOM      5  H   UNL     1     -14.057 -44.652  27.886  0.00  0.00    +0.123 HD
ENDROOT
TORSDOF 0
