REMARK  Name = =
REMARK  0 active torsions:
REMARK  status: ('A' for Active; 'I' for Inactive)
REMARK                            x       y       z     vdW  Elec       q    Type
REMARK                         _______ _______ _______ _____ _____    ______ ____
ROOT
ATOM      1  C   UNL     1      -4.188  -3.703  30.586  0.00  0.00    -0.021 C 
ATOM      2  C   UNL     1      -3.281  -3.633  29.637  0.00  0.00    -0.005 C 
ATOM      3  C   UNL     1      -2.392  -4.775  29.735  0.00  0.00    -0.005 C 
ATOM      4  C   UNL     1      -2.765  -5.531  30.744  0.00  0.00    -0.021 C 
ATOM      5  C   UNL     1      -3.939  -4.920  31.375  0.00  0.00    +0.052 C 
ENDROOT
TORSDOF 0
