REMARK  Name = =
REMARK  7 active torsions:
REMARK  status: ('A' for Active; 'I' for Inactive)
REMARK    1  A    between atoms: C_1  and  O_20
REMARK    2  A    between atoms: C_5  and  C_16
REMARK    3  A    between atoms: C_12  and  O_19
REMARK    4  A    between atoms: C_16  and  O_18
REMARK    5  A    between atoms: O_20  and  O_21
REMARK    6  A    between atoms: O_21  and  N_22
REMARK    7  A    between atoms: N_22  and  C_26
REMARK                            x       y       z     vdW  Elec       q    Type
REMARK                         _______ _______ _______ _____ _____    ______ ____
ROOT
ATOM      1  C   UNL     1      -0.467  -6.074  31.207  0.00  0.00    +0.188 C 
ATOM      2  C   UNL     1      -0.223  -6.610  29.935  0.00  0.00    +0.073 C 
ATOM      3  C   UNL     1      -1.252  -6.713  29.050  0.00  0.00    -0.011 C 
ATOM      4  C   UNL     1      -2.553  -6.294  29.375  0.00  0.00    +0.003 C 
ATOM      5  C   UNL     1      -2.752  -5.777  30.621  0.00  0.00    +0.078 C 
ATOM      6  C   UNL     1      -1.738  -5.654  31.554  0.00  0.00    +0.047 C 
ATOM      7  C   UNL     1      -1.092  -7.272  27.695  0.00  0.00    +0.053 C 
ATOM      8  C   UNL     1       0.283  -7.670  27.367  0.00  0.00    -0.012 C 
ATOM      9  C   UNL     1       0.494  -8.182  26.080  0.00  0.00    -0.004 C 
ATOM     10  C   UNL     1       1.727  -8.603  25.648  0.00  0.00    +0.003 C 
ATOM     11  C   UNL     1       2.788  -8.516  26.512  0.00  0.00    +0.037 C 
ATOM     12  C   UNL     1       2.633  -8.007  27.820  0.00  0.00    +0.136 C 
ATOM     13  C   UNL     1       1.371  -7.595  28.212  0.00  0.00    +0.069 C 
ATOM     14  C   UNL     1       1.112  -7.047  29.542  0.00  0.00    +0.201 C 
ATOM     15  O   UNL     1       2.053  -6.949  30.367  0.00  0.00    -0.286 OA
ENDROOT
BRANCH   5  16
ATOM     16  C   UNL     1      -4.081  -5.337  31.002  0.00  0.00    +0.338 C 
ATOM     17  O   UNL     1      -4.840  -4.827  30.125  0.00  0.00    -0.245 OA
BRANCH  16  18
ATOM     18  O   UNL     1      -4.533  -5.466  32.308  0.00  0.00    -0.477 OA
ATOM     19  H   UNL     1      -3.977  -5.842  32.961  0.00  0.00    +0.295 HD
ENDBRANCH  16  18
ENDBRANCH   5  16
BRANCH  12  20
ATOM     20  O   UNL     1       3.731  -7.945  28.638  0.00  0.00    -0.505 OA
ATOM     21  H   UNL     1       4.565  -8.237  28.326  0.00  0.00    +0.292 HD
ENDBRANCH  12  20
BRANCH   1  22
ATOM     22  O   UNL     1       0.599  -6.011  32.020  0.00  0.00    -0.313 OA
BRANCH  22  23
ATOM     23  O   UNL     1       1.462  -5.377  32.592  0.00  0.00    -0.059 OA
BRANCH  23  24
ATOM     24  N   UNL     1       2.209  -5.720  33.613  0.00  0.00    -0.098 N 
ATOM     25  C   UNL     1       2.156  -7.041  34.118  0.00  0.00    +0.334 C 
ATOM     26  O   UNL     1       1.386  -7.884  33.614  0.00  0.00    -0.262 OA
BRANCH  24  28
ATOM     27  C   UNL     1       2.897  -3.502  34.462  0.00  0.00    -0.004 C 
ATOM     28  C   UNL     1       3.120  -4.798  34.253  0.00  0.00    +0.081 C 
ATOM     29  C   UNL     1       4.436  -5.086  34.794  0.00  0.00    +0.013 C 
ATOM     30  C   UNL     1       4.999  -4.009  35.312  0.00  0.00    -0.020 C 
ATOM     31  C   UNL     1       4.046  -2.875  35.140  0.00  0.00    +0.053 C 
ENDBRANCH  24  28
ENDBRANCH  23  24
ENDBRANCH  22  23
ENDBRANCH   1  22
TORSDOF 7
