MODEL 1
REMARK VINA RESULT:    -5.936      0.000      0.000
REMARK INTER + INTRA:          -7.059
REMARK INTER:                  -7.150
REMARK INTRA:                   0.091
REMARK UNBOUND:                 0.091
REMARK  Name = =
REMARK  4 active torsions:
REMARK  status: ('A' for Active; 'I' for Inactive)
REMARK    1  A    between atoms: C_1  and  C_11
REMARK    2  A    between atoms: C_1  and  S_22
REMARK    3  A    between atoms: C_19  and  O_21
REMARK    4  A    between atoms: S_22  and  C_23
REMARK                            x       y       z     vdW  Elec       q    Type
REMARK                         _______ _______ _______ _____ _____    ______ ____
ROOT
ATOM      1  C   UNL     1      49.407 165.799  40.890  0.00  0.00    +0.198 C 
ATOM      2  O   UNL     1      50.325 165.642  39.823  0.00  0.00    -0.465 OA
ATOM      3  C   UNL     1      51.469 166.368  39.621  0.00  0.00    +0.174 C 
ATOM      4  C   UNL     1      51.733 167.467  40.304  0.00  0.00    +0.040 C 
ATOM      5  C   UNL     1      50.745 167.873  41.296  0.00  0.00    +0.003 C 
ATOM      6  C   UNL     1      50.970 169.095  41.936  0.00  0.00    -0.000 C 
ATOM      7  C   UNL     1      50.039 169.610  42.815  0.00  0.00    -0.000 C 
ATOM      8  C   UNL     1      48.896 168.885  43.034  0.00  0.00    -0.000 C 
ATOM      9  C   UNL     1      48.687 167.678  42.397  0.00  0.00    -0.000 C 
ATOM     10  C   UNL     1      49.602 167.150  41.523  0.00  0.00    +0.024 C 
ENDROOT
BRANCH   1  11
ATOM     11  C   UNL     1      49.836 164.725  41.898  0.00  0.00    +0.048 C 
ATOM     12  C   UNL     1      48.735 164.141  42.737  0.00  0.00    +0.005 C 
ATOM     13  C   UNL     1      49.172 162.709  43.035  0.00  0.00    +0.000 C 
ATOM     14  C   UNL     1      49.937 162.353  41.771  0.00  0.00    +0.001 C 
ATOM     15  C   UNL     1      50.668 163.629  41.385  0.00  0.00    +0.012 C 
ATOM     16  C   UNL     1      51.241 164.543  42.257  0.00  0.00    +0.016 C 
ATOM     17  C   UNL     1      52.063 165.284  43.033  0.00  0.00    +0.029 C 
ATOM     18  C   UNL     1      53.352 164.938  42.856  0.00  0.00    +0.006 C 
ATOM     19  C   UNL     1      53.373 163.863  41.871  0.00  0.00    +0.106 C 
ATOM     20  C   UNL     1      52.143 163.597  41.502  0.00  0.00    +0.057 C 
BRANCH  19  21
ATOM     21  O   UNL     1      54.553 163.260  41.434  0.00  0.00    -0.510 OA
ATOM     22  H   UNL     1      54.987 162.632  41.976  0.00  0.00    +0.292 HD
ENDBRANCH  19  21
ENDBRANCH   1  11
BRANCH   1  23
ATOM     23  S   UNL     1      47.707 165.655  40.447  0.00  0.00    -0.015 S 
BRANCH  23  24
ATOM     24  C   UNL     1      47.153 164.210  39.666  0.00  0.00    +0.273 C 
ATOM     25  O   UNL     1      46.729 163.222  40.294  0.00  0.00    -0.263 OA
ATOM     26  N   UNL     1      47.173 164.120  38.258  0.00  0.00    -0.320 N 
ATOM     27  H   UNL     1      47.500 164.877  37.721  0.00  0.00    +0.146 HD
ATOM     28  H   UNL     1      46.861 163.298  37.812  0.00  0.00    +0.146 HD
ENDBRANCH  23  24
ENDBRANCH   1  23
TORSDOF 4
ENDMDL
