MODEL 1
REMARK VINA RESULT:    -7.958      0.000      0.000
REMARK INTER + INTRA:         -14.951
REMARK INTER:                 -11.448
REMARK INTRA:                  -3.504
REMARK UNBOUND:                -3.504
REMARK  Name = =
REMARK  9 active torsions:
REMARK  status: ('A' for Active; 'I' for Inactive)
REMARK    1  A    between atoms: C_1  and  C_14
REMARK    2  A    between atoms: C_2  and  O_36
REMARK    3  A    between atoms: C_3  and  O_35
REMARK    4  A    between atoms: C_5  and  C_29
REMARK    5  A    between atoms: C_6  and  C_19
REMARK    6  A    between atoms: C_10  and  P_16
REMARK    7  A    between atoms: P_16  and  O_18
REMARK    8  A    between atoms: O_36  and  S_37
REMARK    9  A    between atoms: C_42  and  N_43
REMARK                            x       y       z     vdW  Elec       q    Type
REMARK                         _______ _______ _______ _____ _____    ______ ____
ROOT
ATOM      1  C   UNL     1       2.202  -8.158  26.532  0.00  0.00    +0.092 C 
ATOM      2  C   UNL     1       0.804  -7.952  26.641  0.00  0.00    +0.190 C 
ATOM      3  C   UNL     1      -0.118  -8.944  26.466  0.00  0.00    +0.169 C 
ATOM      4  C   UNL     1       0.339 -10.186  26.174  0.00  0.00    +0.036 C 
ATOM      5  C   UNL     1       1.701 -10.473  26.048  0.00  0.00    -0.019 C 
ATOM      6  C   UNL     1       2.616  -9.421  26.236  0.00  0.00    +0.004 C 
ENDROOT
BRANCH   1  14
ATOM      7  N   UNL     1       4.827  -4.929  27.606  0.00  0.00    -0.191 NA
ATOM      8  C   UNL     1       4.367  -5.007  26.363  0.00  0.00    +0.226 C 
ATOM      9  N   UNL     1       4.741  -4.068  25.481  0.00  0.00    -0.190 NA
ATOM     10  C   UNL     1       5.569  -3.052  25.831  0.00  0.00    +0.217 C 
ATOM     11  N   UNL     1       6.015  -2.994  27.078  0.00  0.00    -0.200 NA
ATOM     12  C   UNL     1       5.644  -3.935  27.975  0.00  0.00    +0.203 C 
ATOM     13  N   UNL     1       3.481  -6.072  25.939  0.00  0.00    -0.250 N 
ATOM     14  C   UNL     1       3.078  -7.063  26.835  0.00  0.00    +0.255 C 
ATOM     15  O   UNL     1       3.554  -6.940  28.033  0.00  0.00    -0.270 OA
ATOM     16  H   UNL     1       3.161  -6.097  25.009  0.00  0.00    +0.158 HD
BRANCH  10  17
ATOM     17  P   UNL     1       5.991  -1.873  24.562  0.00  0.00    +0.256 P 
ATOM     18  O   UNL     1       5.056  -0.691  24.561  0.00  0.00    -0.286 OA
ATOM     19  H   UNL     1       5.701  -2.983  23.795  0.00  0.00    +0.136 HD
BRANCH  17  20
ATOM     20  O   UNL     1       7.560  -1.292  24.693  0.00  0.00    -0.341 OA
ATOM     21  H   UNL     1       8.088  -1.615  23.946  0.00  0.00    +0.218 HD
ENDBRANCH  17  20
ENDBRANCH  10  17
ENDBRANCH   1  14
BRANCH   6  22
ATOM     22  C   UNL     1       4.005  -9.769  26.087  0.00  0.00    -0.000 C 
ATOM     23  C   UNL     1       4.760 -10.085  27.177  0.00  0.00    -0.000 C 
ATOM     24  C   UNL     1       6.081 -10.455  27.064  0.00  0.00    -0.000 C 
ATOM     25  C   UNL     1       6.625 -10.499  25.795  0.00  0.00    -0.000 C 
ATOM     26  C   UNL     1       5.905 -10.190  24.684  0.00  0.00    -0.000 C 
ATOM     27  C   UNL     1       4.577  -9.820  24.843  0.00  0.00    -0.000 C 
ATOM     28  C   UNL     1       7.949 -10.867  25.663  0.00  0.00    +0.000 C 
ATOM     29  C   UNL     1       8.679 -11.179  26.794  0.00  0.00    +0.000 C 
ATOM     30  C   UNL     1       8.128 -11.135  28.051  0.00  0.00    +0.000 C 
ATOM     31  C   UNL     1       6.816 -10.770  28.199  0.00  0.00    -0.000 C 
ENDBRANCH   6  22
BRANCH   5  32
ATOM     32  C   UNL     1       2.120 -11.838  25.772  0.00  0.00    +0.022 C 
ATOM     33  C   UNL     1       1.182 -12.535  24.784  0.00  0.00    +0.004 C 
ATOM     34  C   UNL     1       1.781 -13.880  24.481  0.00  0.00    +0.000 C 
ATOM     35  C   UNL     1       3.102 -14.145  25.117  0.00  0.00    +0.000 C 
ATOM     36  C   UNL     1       3.120 -13.873  26.605  0.00  0.00    +0.000 C 
ATOM     37  C   UNL     1       2.150 -12.760  26.971  0.00  0.00    +0.004 C 
ENDBRANCH   5  32
BRANCH   3  38
ATOM     38  O   UNL     1      -1.458  -8.608  26.602  0.00  0.00    -0.503 OA
ATOM     39  H   UNL     1      -2.068  -8.831  25.927  0.00  0.00    +0.292 HD
ENDBRANCH   3  38
BRANCH   2  40
ATOM     40  O   UNL     1       0.403  -6.663  26.935  0.00  0.00    -0.443 OA
BRANCH  40  41
ATOM     41  S   UNL     1      -0.010  -6.117  28.440  0.00  0.00    -0.068 S 
ATOM     42  C   UNL     1       0.465  -7.046  29.814  0.00  0.00    +0.091 C 
ATOM     43  C   UNL     1       0.305  -6.313  31.121  0.00  0.00    +0.082 C 
ATOM     44  N   UNL     1       0.796  -4.971  31.110  0.00  0.00    -0.295 NA
ATOM     45  C   UNL     1      -0.036  -4.186  30.219  0.00  0.00    +0.097 C 
ATOM     46  C   UNL     1       0.482  -4.427  28.818  0.00  0.00    +0.129 C 
ATOM     47  H   UNL     1      -1.355  -6.236  28.278  0.00  0.00    +0.124 HD
ATOM     48  H   UNL     1       1.761  -4.961  30.779  0.00  0.00    +0.123 HD
BRANCH  46  49
ATOM     49  N   UNL     1       1.928  -4.450  28.806  0.00  0.00    -0.312 NA
ATOM     50  H   UNL     1       2.271  -3.871  28.040  0.00  0.00    +0.120 HD
ATOM     51  H   UNL     1       2.252  -5.409  28.679  0.00  0.00    +0.120 HD
ENDBRANCH  46  49
ENDBRANCH  40  41
ENDBRANCH   2  40
TORSDOF 9
ENDMDL
