REMARK  Name = =
REMARK  9 active torsions:
REMARK  status: ('A' for Active; 'I' for Inactive)
REMARK    1  A    between atoms: C_1  and  C_14
REMARK    2  A    between atoms: C_2  and  O_36
REMARK    3  A    between atoms: C_3  and  O_35
REMARK    4  A    between atoms: C_5  and  C_29
REMARK    5  A    between atoms: C_6  and  C_19
REMARK    6  A    between atoms: C_10  and  P_16
REMARK    7  A    between atoms: P_16  and  O_18
REMARK    8  A    between atoms: O_36  and  S_37
REMARK    9  A    between atoms: C_42  and  N_43
REMARK                            x       y       z     vdW  Elec       q    Type
REMARK                         _______ _______ _______ _____ _____    ______ ____
ROOT
ATOM      1  C   UNL     1     -14.951   2.068  26.155  0.00  0.00    +0.092 C 
ATOM      2  C   UNL     1     -15.410   2.571  27.398  0.00  0.00    +0.190 C 
ATOM      3  C   UNL     1     -15.413   3.899  27.717  0.00  0.00    +0.169 C 
ATOM      4  C   UNL     1     -14.951   4.772  26.789  0.00  0.00    +0.036 C 
ATOM      5  C   UNL     1     -14.480   4.358  25.540  0.00  0.00    -0.019 C 
ATOM      6  C   UNL     1     -14.495   2.981  25.253  0.00  0.00    +0.004 C 
ENDROOT
BRANCH   1  14
ATOM      7  N   UNL     1     -15.536  -2.123  25.404  0.00  0.00    -0.191 NA
ATOM      8  C   UNL     1     -14.304  -1.630  25.412  0.00  0.00    +0.226 C 
ATOM      9  N   UNL     1     -13.278  -2.464  25.185  0.00  0.00    -0.190 NA
ATOM     10  C   UNL     1     -13.474  -3.786  24.950  0.00  0.00    +0.217 C 
ATOM     11  N   UNL     1     -14.713  -4.255  24.947  0.00  0.00    -0.200 NA
ATOM     12  C   UNL     1     -15.754  -3.424  25.176  0.00  0.00    +0.203 C 
ATOM     13  N   UNL     1     -14.042  -0.226  25.657  0.00  0.00    -0.250 N 
ATOM     14  C   UNL     1     -15.089   0.664  25.895  0.00  0.00    +0.255 C 
ATOM     15  O   UNL     1     -16.270   0.132  25.876  0.00  0.00    -0.270 OA
ATOM     16  H   UNL     1     -13.114   0.103  25.655  0.00  0.00    +0.158 HD
BRANCH  10  17
ATOM     17  P   UNL     1     -12.025  -4.783  24.658  0.00  0.00    +0.256 P 
ATOM     18  O   UNL     1     -11.417  -4.506  23.307  0.00  0.00    -0.286 OA
ATOM     19  H   UNL     1     -12.987  -5.763  24.794  0.00  0.00    +0.136 HD
BRANCH  17  20
ATOM     20  O   UNL     1     -10.830  -4.570  25.817  0.00  0.00    -0.341 OA
ATOM     21  H   UNL     1     -10.249  -3.840  25.552  0.00  0.00    +0.218 HD
ENDBRANCH  17  20
ENDBRANCH  10  17
ENDBRANCH   1  14
BRANCH   6  22
ATOM     22  C   UNL     1     -13.992   2.609  23.957  0.00  0.00    -0.000 C 
ATOM     23  C   UNL     1     -14.841   2.457  22.902  0.00  0.00    -0.000 C 
ATOM     24  C   UNL     1     -14.388   2.136  21.643  0.00  0.00    -0.000 C 
ATOM     25  C   UNL     1     -13.026   1.971  21.478  0.00  0.00    -0.000 C 
ATOM     26  C   UNL     1     -12.147   2.113  22.506  0.00  0.00    -0.000 C 
ATOM     27  C   UNL     1     -12.647   2.436  23.759  0.00  0.00    -0.000 C 
ATOM     28  C   UNL     1     -12.553   1.648  20.222  0.00  0.00    +0.000 C 
ATOM     29  C   UNL     1     -13.449   1.503  19.180  0.00  0.00    +0.000 C 
ATOM     30  C   UNL     1     -14.801   1.671  19.354  0.00  0.00    +0.000 C 
ATOM     31  C   UNL     1     -15.286   1.990  20.594  0.00  0.00    -0.000 C 
ENDBRANCH   6  22
BRANCH   5  32
ATOM     32  C   UNL     1     -14.036   5.355  24.579  0.00  0.00    +0.022 C 
ATOM     33  C   UNL     1     -13.226   6.470  25.245  0.00  0.00    +0.004 C 
ATOM     34  C   UNL     1     -12.719   7.363  24.147  0.00  0.00    +0.000 C 
ATOM     35  C   UNL     1     -13.045   6.916  22.763  0.00  0.00    +0.000 C 
ATOM     36  C   UNL     1     -14.510   6.597  22.562  0.00  0.00    +0.000 C 
ATOM     37  C   UNL     1     -15.141   6.085  23.847  0.00  0.00    +0.004 C 
ENDBRANCH   5  32
BRANCH   3  38
ATOM     38  O   UNL     1     -15.891   4.258  28.970  0.00  0.00    -0.503 OA
ATOM     39  H   UNL     1     -16.195   3.599  29.562  0.00  0.00    +0.292 HD
ENDBRANCH   3  38
BRANCH   2  40
ATOM     40  O   UNL     1     -15.863   1.629  28.302  0.00  0.00    -0.443 OA
BRANCH  40  41
ATOM     41  S   UNL     1     -14.952   0.952  29.504  0.00  0.00    -0.068 S 
ATOM     42  C   UNL     1     -15.711   0.587  31.010  0.00  0.00    +0.091 C 
ATOM     43  C   UNL     1     -14.877  -0.290  31.908  0.00  0.00    +0.082 C 
ATOM     44  N   UNL     1     -14.284  -1.412  31.252  0.00  0.00    -0.295 NA
ATOM     45  C   UNL     1     -13.299  -0.924  30.307  0.00  0.00    +0.097 C 
ATOM     46  C   UNL     1     -14.054  -0.542  29.053  0.00  0.00    +0.129 C 
ATOM     47  H   UNL     1     -14.123   2.016  29.680  0.00  0.00    +0.124 HD
ATOM     48  H   UNL     1     -15.003  -1.941  30.758  0.00  0.00    +0.123 HD
BRANCH  46  49
ATOM     49  N   UNL     1     -15.080  -1.518  28.759  0.00  0.00    -0.312 NA
ATOM     50  H   UNL     1     -15.577  -1.244  27.912  0.00  0.00    +0.120 HD
ATOM     51  H   UNL     1     -15.737  -1.566  29.538  0.00  0.00    +0.120 HD
ENDBRANCH  46  49
ENDBRANCH  40  41
ENDBRANCH   2  40
TORSDOF 9
