REMARK  Name = =
REMARK  1 active torsions:
REMARK  status: ('A' for Active; 'I' for Inactive)
REMARK    1  A    between atoms: C_1  and  C_11
REMARK                            x       y       z     vdW  Elec       q    Type
REMARK                         _______ _______ _______ _____ _____    ______ ____
ROOT
ATOM      1  C   UNL     1     -12.878 -43.179  27.633  0.00  0.00    +0.019 C 
ATOM      2  C   UNL     1     -11.974 -42.186  27.853  0.00  0.00    +0.098 C 
ATOM      3  N   UNL     1     -11.085 -42.305  28.871  0.00  0.00    -0.225 NA
ATOM      4  C   UNL     1     -11.074 -43.385  29.675  0.00  0.00    +0.165 C 
ATOM      5  N   UNL     1     -10.196 -43.516  30.690  0.00  0.00    -0.205 NA
ATOM      6  C   UNL     1     -10.175 -44.581  31.493  0.00  0.00    +0.200 C 
ATOM      7  N   UNL     1     -11.050 -45.592  31.318  0.00  0.00    -0.222 NA
ATOM      8  C   UNL     1     -11.953 -45.538  30.332  0.00  0.00    +0.104 C 
ATOM      9  C   UNL     1     -11.979 -44.441  29.501  0.00  0.00    +0.055 C 
ATOM     10  C   UNL     1     -12.873 -44.305  28.465  0.00  0.00    +0.004 C 
ENDROOT
BRANCH   1  11
ATOM     11  C   UNL     1     -13.899 -43.174  26.560  0.00  0.00    +0.143 C 
ATOM     12  C   UNL     1     -13.746 -42.058  25.587  0.00  0.00    +0.234 C 
ATOM     13  O   UNL     1     -14.397 -42.582  24.418  0.00  0.00    -0.432 OA
ATOM     14  C   UNL     1     -14.257 -43.981  24.454  0.00  0.00    +0.402 C 
ATOM     15  O   UNL     1     -14.559 -44.765  23.522  0.00  0.00    -0.226 OA
ATOM     16  N   UNL     1     -13.716 -44.349  25.726  0.00  0.00    -0.265 N 
ATOM     17  H   UNL     1     -13.309 -45.209  25.980  0.00  0.00    +0.153 HD
ENDBRANCH   1  11
TORSDOF 1
