REMARK  Name = =
REMARK  4 active torsions:
REMARK  status: ('A' for Active; 'I' for Inactive)
REMARK    1  A    between atoms: C_1  and  C_7
REMARK    2  A    between atoms: C_1  and  O_17
REMARK    3  A    between atoms: O_17  and  P_19
REMARK    4  A    between atoms: P_19  and  O_21
REMARK                            x       y       z     vdW  Elec       q    Type
REMARK                         _______ _______ _______ _____ _____    ______ ____
ROOT
ATOM      1  C   UNL     1     -11.613 -43.396  29.816  0.00  0.00    +0.222 C 
ATOM      2  C   UNL     1     -11.314 -41.982  30.250  0.00  0.00    +0.261 C 
ATOM      3  O   UNL     1     -10.061 -42.115  30.883  0.00  0.00    -0.430 OA
ATOM      4  C   UNL     1      -9.381 -43.159  30.268  0.00  0.00    +0.404 C 
ATOM      5  O   UNL     1      -8.167 -43.486  30.425  0.00  0.00    -0.226 OA
ATOM      6  N   UNL     1     -10.270 -43.833  29.397  0.00  0.00    -0.245 N 
ATOM      7  H   UNL     1     -10.041 -44.457  28.671  0.00  0.00    +0.155 HD
ENDROOT
BRANCH   1   8
ATOM      8  C   UNL     1     -12.494 -43.496  28.638  0.00  0.00    +0.025 C 
ATOM      9  C   UNL     1     -13.512 -44.404  28.627  0.00  0.00    +0.096 C 
ATOM     10  N   UNL     1     -14.305 -44.442  27.532  0.00  0.00    -0.228 NA
ATOM     11  C   UNL     1     -14.128 -43.632  26.472  0.00  0.00    +0.151 C 
ATOM     12  N   UNL     1     -14.998 -43.763  25.423  0.00  0.00    -0.173 NA
ATOM     13  C   UNL     1     -14.807 -42.925  24.361  0.00  0.00    +0.187 C 
ATOM     14  N   UNL     1     -13.815 -42.042  24.366  0.00  0.00    -0.225 NA
ATOM     15  C   UNL     1     -12.943 -41.881  25.360  0.00  0.00    +0.099 C 
ATOM     16  C   UNL     1     -13.112 -42.710  26.453  0.00  0.00    +0.035 C 
ATOM     17  C   UNL     1     -12.286 -42.654  27.570  0.00  0.00    +0.058 C 
ENDBRANCH   1   8
BRANCH   1  18
ATOM     18  O   UNL     1     -11.955 -44.206  30.854  0.00  0.00    -0.266 OA
BRANCH  18  20
ATOM     19  S   UNL     1     -14.499 -42.977  31.202  0.00  0.00    +0.039 S 
ATOM     20  P   UNL     1     -13.114 -43.664  31.922  0.00  0.00    +0.402 P 
ATOM     21  O   UNL     1     -13.580 -44.758  32.904  0.00  0.00    -0.245 OA
BRANCH  20  22
ATOM     22  O   UNL     1     -12.346 -42.503  32.931  0.00  0.00    -0.316 OA
ATOM     23  H   UNL     1     -12.018 -41.769  32.388  0.00  0.00    +0.221 HD
ENDBRANCH  20  22
ENDBRANCH  18  20
ENDBRANCH   1  18
TORSDOF 4
