REMARK  Name = =
REMARK  6 active torsions:
REMARK  status: ('A' for Active; 'I' for Inactive)
REMARK    1  A    between atoms: C_1  and  C_7
REMARK    2  A    between atoms: C_1  and  O_17
REMARK    3  A    between atoms: O_17  and  P_19
REMARK    4  A    between atoms: S_18  and  P_19
REMARK    5  A    between atoms: S_18  and  C_21
REMARK    6  A    between atoms: P_19  and  O_26
REMARK                            x       y       z     vdW  Elec       q    Type
REMARK                         _______ _______ _______ _____ _____    ______ ____
ROOT
ATOM      1  C   UNL     1     -12.087 -43.764  28.217  0.00  0.00    +0.225 C 
ATOM      2  C   UNL     1     -11.965 -42.794  27.149  0.00  0.00    +0.261 C 
ATOM      3  O   UNL     1     -13.130 -42.936  26.313  0.00  0.00    -0.430 OA
ATOM      4  C   UNL     1     -13.840 -44.072  26.751  0.00  0.00    +0.404 C 
ATOM      5  O   UNL     1     -15.017 -44.411  26.477  0.00  0.00    -0.226 OA
ATOM      6  N   UNL     1     -12.975 -44.784  27.578  0.00  0.00    -0.245 N 
ATOM      7  H   UNL     1     -12.953 -45.759  27.714  0.00  0.00    +0.155 HD
ENDROOT
BRANCH   1   8
ATOM      8  C   UNL     1     -12.818 -43.368  29.394  0.00  0.00    +0.043 C 
ATOM      9  C   UNL     1     -14.118 -43.829  29.553  0.00  0.00    +0.100 C 
ATOM     10  N   UNL     1     -14.798 -43.758  30.693  0.00  0.00    -0.225 NA
ATOM     11  C   UNL     1     -14.220 -43.208  31.767  0.00  0.00    +0.165 C 
ATOM     12  N   UNL     1     -14.803 -43.182  32.968  0.00  0.00    -0.205 NA
ATOM     13  C   UNL     1     -14.199 -42.695  34.076  0.00  0.00    +0.200 C 
ATOM     14  N   UNL     1     -12.917 -42.214  33.963  0.00  0.00    -0.222 NA
ATOM     15  C   UNL     1     -12.265 -42.211  32.802  0.00  0.00    +0.104 C 
ATOM     16  C   UNL     1     -12.917 -42.712  31.681  0.00  0.00    +0.055 C 
ATOM     17  C   UNL     1     -12.218 -42.791  30.494  0.00  0.00    +0.006 C 
ENDBRANCH   1   8
BRANCH   1  18
ATOM     18  O   UNL     1     -10.935 -44.539  28.424  0.00  0.00    -0.267 OA
BRANCH  18  19
ATOM     19  P   UNL     1     -10.037 -44.298  29.738  0.00  0.00    +0.386 P 
ATOM     20  O   UNL     1     -10.353 -43.081  30.549  0.00  0.00    -0.247 OA
BRANCH  19  21
ATOM     21  S   UNL     1      -8.148 -44.089  29.310  0.00  0.00    -0.045 S 
ATOM     22  H   UNL     1      -7.927 -42.982  28.552  0.00  0.00    +0.111 HD
BRANCH  21  23
ATOM     23  C   UNL     1      -7.442 -43.916  30.953  0.00  0.00    +0.211 C 
ATOM     24  N   UNL     1      -6.934 -44.971  31.584  0.00  0.00    -0.212 NA
ATOM     25  C   UNL     1      -6.507 -44.509  32.782  0.00  0.00    +0.304 C 
ATOM     26  O   UNL     1      -6.789 -43.239  32.781  0.00  0.00    -0.207 OA
ATOM     27  N   UNL     1      -7.351 -42.818  31.703  0.00  0.00    -0.104 NA
ENDBRANCH  21  23
ENDBRANCH  19  21
BRANCH  19  28
ATOM     28  O   UNL     1     -10.103 -45.647  30.753  0.00  0.00    -0.317 OA
ATOM     29  H   UNL     1      -9.900 -46.446  30.242  0.00  0.00    +0.221 HD
ENDBRANCH  19  28
ENDBRANCH  18  19
ENDBRANCH   1  18
TORSDOF 6
