MODEL 1
REMARK VINA RESULT:    -8.982      0.000      0.000
REMARK INTER + INTRA:         -18.289
REMARK INTER:                 -15.545
REMARK INTRA:                  -2.744
REMARK UNBOUND:                -2.744
REMARK  Name = =
REMARK  14 active torsions:
REMARK  status: ('A' for Active; 'I' for Inactive)
REMARK    1  A    between atoms: C_1  and  C_3
REMARK    2  A    between atoms: C_1  and  N_17
REMARK    3  A    between atoms: C_3  and  C_9
REMARK    4  A    between atoms: N_4  and  N_5
REMARK    5  A    between atoms: N_5  and  C_6
REMARK    6  A    between atoms: C_6  and  N_8
REMARK    7  A    between atoms: C_9  and  N_11
REMARK    8  A    between atoms: N_11  and  N_12
REMARK    9  A    between atoms: C_13  and  C_15
REMARK   10  A    between atoms: N_17  and  C_19
REMARK   11  A    between atoms: N_17  and  N_30
REMARK   12  A    between atoms: C_26  and  C_27
REMARK   13  A    between atoms: C_27  and  O_29
REMARK   14  A    between atoms: C_31  and  O_33
REMARK                            x       y       z     vdW  Elec       q    Type
REMARK                         _______ _______ _______ _____ _____    ______ ____
ROOT
ATOM      1  C   UNL     1     -12.076 -44.652  30.434  0.00  0.00    +0.121 C 
ATOM      2  C   UNL     1     -12.462 -45.473  31.637  0.00  0.00    +0.026 C 
ENDROOT
BRANCH   1   3
ATOM      3  C   UNL     1     -13.324 -43.919  29.991  0.00  0.00    +0.113 C 
ATOM      4  N   UNL     1     -14.088 -43.540  30.860  0.00  0.00    -0.181 NA
BRANCH   4   5
ATOM      5  N   UNL     1     -15.207 -42.928  31.207  0.00  0.00    -0.218 N 
ATOM      6  H   UNL     1     -16.022 -43.026  30.664  0.00  0.00    +0.176 HD
BRANCH   5   7
ATOM      7  C   UNL     1     -15.208 -42.113  32.401  0.00  0.00    +0.147 C 
ATOM      8  S   UNL     1     -14.294 -42.582  33.648  0.00  0.00    -0.017 S 
BRANCH   7   9
ATOM      9  N   UNL     1     -15.979 -40.941  32.488  0.00  0.00    -0.339 N 
ATOM     10  H   UNL     1     -16.580 -40.691  31.749  0.00  0.00    +0.144 HD
ATOM     11  H   UNL     1     -15.919 -40.370  33.288  0.00  0.00    +0.144 HD
ENDBRANCH   7   9
ENDBRANCH   5   7
ENDBRANCH   4   5
BRANCH   3  12
ATOM     12  C   UNL     1     -13.494 -43.726  28.577  0.00  0.00    +0.113 C 
ATOM     13  S   UNL     1     -13.132 -44.947  27.500  0.00  0.00    -0.032 S 
BRANCH  12  14
ATOM     14  N   UNL     1     -13.942 -42.533  27.939  0.00  0.00    -0.256 N 
ATOM     15  H   UNL     1     -13.493 -41.683  28.154  0.00  0.00    +0.171 HD
BRANCH  14  16
ATOM     16  N   UNL     1     -15.004 -42.526  27.012  0.00  0.00    -0.232 N 
ATOM     17  C   UNL     1     -16.301 -42.142  27.367  0.00  0.00    +0.261 C 
ATOM     18  O   UNL     1     -16.514 -41.800  28.554  0.00  0.00    -0.269 OA
ATOM     19  H   UNL     1     -14.827 -42.800  26.082  0.00  0.00    +0.173 HD
BRANCH  17  20
ATOM     20  C   UNL     1     -17.437 -42.114  26.437  0.00  0.00    +0.059 C 
ATOM     21  C   UNL     1     -17.285 -41.859  25.154  0.00  0.00    +0.005 C 
ENDBRANCH  17  20
ENDBRANCH  14  16
ENDBRANCH  12  14
ENDBRANCH   3  12
ENDBRANCH   1   3
BRANCH   1  22
ATOM     22  N   UNL     1     -10.954 -43.832  30.571  0.00  0.00    -0.175 NA
BRANCH  22  24
ATOM     23  N   UNL     1      -8.682 -43.387  29.969  0.00  0.00    -0.234 N 
ATOM     24  C   UNL     1      -9.977 -43.914  29.559  0.00  0.00    +0.176 C 
ATOM     25  C   UNL     1      -9.984 -42.971  28.412  0.00  0.00    +0.132 C 
ATOM     26  C   UNL     1      -8.797 -42.333  29.038  0.00  0.00    +0.235 C 
ATOM     27  O   UNL     1      -8.193 -41.238  28.758  0.00  0.00    -0.274 OA
ATOM     28  S   UNL     1      -9.656 -45.632  29.075  0.00  0.00    -0.101 S 
ATOM     29  C   UNL     1      -8.633 -46.352  30.370  0.00  0.00    +0.088 C 
ATOM     30  C   UNL     1      -7.909 -45.356  31.174  0.00  0.00    +0.007 C 
ATOM     31  C   UNL     1      -7.945 -44.049  30.977  0.00  0.00    +0.128 C 
BRANCH  31  32
ATOM     32  C   UNL     1      -7.144 -43.160  31.867  0.00  0.00    +0.352 C 
ATOM     33  O   UNL     1      -6.253 -42.409  31.427  0.00  0.00    -0.244 OA
BRANCH  32  34
ATOM     34  O   UNL     1      -7.361 -43.132  33.243  0.00  0.00    -0.476 OA
ATOM     35  H   UNL     1      -8.201 -42.887  33.580  0.00  0.00    +0.295 HD
ENDBRANCH  32  34
ENDBRANCH  31  32
ENDBRANCH  22  24
BRANCH  22  36
ATOM     36  N   UNL     1     -11.089 -42.645  31.232  0.00  0.00    -0.210 N 
ATOM     37  C   UNL     1     -10.737 -42.398  32.578  0.00  0.00    +0.412 C 
ATOM     38  O   UNL     1     -10.258 -43.309  33.256  0.00  0.00    -0.225 OA
ATOM     39  H   UNL     1     -11.468 -41.892  30.723  0.00  0.00    +0.173 HD
BRANCH  37  40
ATOM     40  O   UNL     1     -10.920 -41.145  33.139  0.00  0.00    -0.465 OA
ATOM     41  H   UNL     1     -10.868 -41.036  34.068  0.00  0.00    +0.297 HD
ENDBRANCH  37  40
ENDBRANCH  22  36
ENDBRANCH   1  22
TORSDOF 14
ENDMDL
