REMARK  Name = =
REMARK  14 active torsions:
REMARK  status: ('A' for Active; 'I' for Inactive)
REMARK    1  A    between atoms: C_1  and  C_3
REMARK    2  A    between atoms: C_1  and  N_17
REMARK    3  A    between atoms: C_3  and  C_9
REMARK    4  A    between atoms: N_4  and  N_5
REMARK    5  A    between atoms: N_5  and  C_6
REMARK    6  A    between atoms: C_6  and  N_8
REMARK    7  A    between atoms: C_9  and  N_11
REMARK    8  A    between atoms: N_11  and  N_12
REMARK    9  A    between atoms: C_13  and  C_15
REMARK   10  A    between atoms: N_17  and  C_19
REMARK   11  A    between atoms: N_17  and  N_30
REMARK   12  A    between atoms: C_26  and  C_27
REMARK   13  A    between atoms: C_27  and  O_29
REMARK   14  A    between atoms: C_31  and  O_33
REMARK                            x       y       z     vdW  Elec       q    Type
REMARK                         _______ _______ _______ _____ _____    ______ ____
ROOT
ATOM      1  C   UNL     1     -11.077 -43.937  29.191  0.00  0.00    +0.121 C 
ATOM      2  C   UNL     1     -11.021 -45.441  29.111  0.00  0.00    +0.026 C 
ENDROOT
BRANCH   1   3
ATOM      3  C   UNL     1     -12.527 -43.547  29.000  0.00  0.00    +0.113 C 
ATOM      4  N   UNL     1     -12.802 -42.879  28.020  0.00  0.00    -0.181 NA
BRANCH   4   5
ATOM      5  N   UNL     1     -13.702 -42.249  27.285  0.00  0.00    -0.218 N 
ATOM      6  H   UNL     1     -13.935 -41.311  27.471  0.00  0.00    +0.176 HD
BRANCH   5   7
ATOM      7  C   UNL     1     -14.337 -42.967  26.203  0.00  0.00    +0.147 C 
ATOM      8  S   UNL     1     -15.627 -42.299  25.495  0.00  0.00    -0.017 S 
BRANCH   7   9
ATOM      9  N   UNL     1     -13.855 -44.214  25.768  0.00  0.00    -0.339 N 
ATOM     10  H   UNL     1     -13.069 -44.617  26.203  0.00  0.00    +0.144 HD
ATOM     11  H   UNL     1     -14.304 -44.685  25.029  0.00  0.00    +0.144 HD
ENDBRANCH   7   9
ENDBRANCH   5   7
ENDBRANCH   4   5
BRANCH   3  12
ATOM     12  C   UNL     1     -13.458 -44.010  29.992  0.00  0.00    +0.113 C 
ATOM     13  S   UNL     1     -13.475 -45.610  30.464  0.00  0.00    -0.032 S 
BRANCH  12  14
ATOM     14  N   UNL     1     -14.448 -43.223  30.648  0.00  0.00    -0.256 N 
ATOM     15  H   UNL     1     -15.322 -43.100  30.212  0.00  0.00    +0.171 HD
BRANCH  14  16
ATOM     16  N   UNL     1     -14.221 -42.614  31.900  0.00  0.00    -0.232 N 
ATOM     17  C   UNL     1     -15.119 -41.697  32.456  0.00  0.00    +0.261 C 
ATOM     18  O   UNL     1     -16.153 -41.412  31.808  0.00  0.00    -0.269 OA
ATOM     19  H   UNL     1     -13.403 -42.842  32.399  0.00  0.00    +0.173 HD
BRANCH  17  20
ATOM     20  C   UNL     1     -14.928 -41.041  33.756  0.00  0.00    +0.059 C 
ATOM     21  C   UNL     1     -13.946 -41.371  34.569  0.00  0.00    +0.005 C 
ENDBRANCH  17  20
ENDBRANCH  14  16
ENDBRANCH  12  14
ENDBRANCH   3  12
ENDBRANCH   1   3
BRANCH   1  22
ATOM     22  N   UNL     1     -10.471 -43.347  30.303  0.00  0.00    -0.175 NA
BRANCH  22  24
ATOM     23  N   UNL     1      -8.911 -44.153  31.927  0.00  0.00    -0.234 N 
ATOM     24  C   UNL     1     -10.282 -44.165  31.434  0.00  0.00    +0.176 C 
ATOM     25  C   UNL     1     -10.209 -45.643  31.304  0.00  0.00    +0.132 C 
ATOM     26  C   UNL     1      -8.754 -45.510  31.575  0.00  0.00    +0.235 C 
ATOM     27  O   UNL     1      -7.807 -46.369  31.488  0.00  0.00    -0.274 OA
ATOM     28  S   UNL     1     -11.293 -43.616  32.836  0.00  0.00    -0.101 S 
ATOM     29  C   UNL     1     -10.477 -42.167  33.526  0.00  0.00    +0.088 C 
ATOM     30  C   UNL     1      -9.049 -42.075  33.187  0.00  0.00    +0.007 C 
ATOM     31  C   UNL     1      -8.377 -42.967  32.479  0.00  0.00    +0.128 C 
BRANCH  31  32
ATOM     32  C   UNL     1      -6.924 -42.745  32.227  0.00  0.00    +0.352 C 
ATOM     33  O   UNL     1      -6.486 -42.434  31.103  0.00  0.00    -0.244 OA
BRANCH  32  34
ATOM     34  O   UNL     1      -5.986 -42.876  33.249  0.00  0.00    -0.476 OA
ATOM     35  H   UNL     1      -6.264 -43.108  34.113  0.00  0.00    +0.295 HD
ENDBRANCH  32  34
ENDBRANCH  31  32
ENDBRANCH  22  24
BRANCH  22  36
ATOM     36  N   UNL     1      -9.590 -42.325  30.100  0.00  0.00    -0.210 N 
ATOM     37  C   UNL     1      -8.800 -42.125  28.945  0.00  0.00    +0.412 C 
ATOM     38  O   UNL     1      -8.882 -42.923  28.009  0.00  0.00    -0.225 OA
ATOM     39  H   UNL     1      -9.496 -41.666  30.825  0.00  0.00    +0.173 HD
BRANCH  37  40
ATOM     40  O   UNL     1      -7.940 -41.043  28.854  0.00  0.00    -0.465 OA
ATOM     41  H   UNL     1      -7.876 -40.435  29.564  0.00  0.00    +0.297 HD
ENDBRANCH  37  40
ENDBRANCH  22  36
ENDBRANCH   1  22
TORSDOF 14
