REMARK  Name = =
REMARK  8 active torsions:
REMARK  status: ('A' for Active; 'I' for Inactive)
REMARK    1  A    between atoms: C_1  and  C_26
REMARK    2  A    between atoms: C_2  and  C_7
REMARK    3  A    between atoms: C_3  and  O_35
REMARK    4  A    between atoms: C_4  and  O_34
REMARK    5  A    between atoms: C_5  and  O_33
REMARK    6  A    between atoms: C_13  and  O_25
REMARK    7  A    between atoms: C_16  and  C_18
REMARK    8  A    between atoms: O_35  and  C_36
REMARK                            x       y       z     vdW  Elec       q    Type
REMARK                         _______ _______ _______ _____ _____    ______ ____
ROOT
ATOM      1  C   UNL     1     -14.270  -4.032  20.524  0.00  0.00    -0.015 C 
ATOM      2  C   UNL     1     -15.023  -3.440  21.512  0.00  0.00    +0.035 C 
ATOM      3  C   UNL     1     -16.153  -4.062  22.054  0.00  0.00    +0.181 C 
ATOM      4  C   UNL     1     -16.527  -5.304  21.590  0.00  0.00    +0.203 C 
ATOM      5  C   UNL     1     -15.786  -5.912  20.604  0.00  0.00    +0.170 C 
ATOM      6  C   UNL     1     -14.660  -5.270  20.076  0.00  0.00    +0.036 C 
ENDROOT
BRANCH   2   7
ATOM      7  C   UNL     1     -14.608  -2.133  22.016  0.00  0.00    +0.019 C 
ATOM      8  C   UNL     1     -15.050  -0.903  21.622  0.00  0.00    +0.072 C 
ATOM      9  N   UNL     1     -14.447   0.109  22.330  0.00  0.00    -0.233 N 
ATOM     10  C   UNL     1     -13.607  -0.508  23.185  0.00  0.00    +0.059 C 
ATOM     11  C   UNL     1     -13.694  -1.893  23.005  0.00  0.00    +0.018 C 
ATOM     12  C   UNL     1     -12.898  -2.700  23.786  0.00  0.00    +0.038 C 
ATOM     13  C   UNL     1     -12.030  -2.185  24.729  0.00  0.00    +0.134 C 
ATOM     14  C   UNL     1     -11.955  -0.815  24.896  0.00  0.00    +0.038 C 
ATOM     15  C   UNL     1     -12.750   0.030  24.118  0.00  0.00    +0.018 C 
ATOM     16  C   UNL     1     -14.711   1.480  22.126  0.00  0.00    +0.257 C 
ATOM     17  O   UNL     1     -15.539   1.828  21.233  0.00  0.00    -0.269 OA
BRANCH  16  18
ATOM     18  C   UNL     1     -14.097   2.547  22.871  0.00  0.00    +0.054 C 
ATOM     19  C   UNL     1     -14.671   3.008  24.056  0.00  0.00    +0.005 C 
ATOM     20  C   UNL     1     -14.131   4.030  24.787  0.00  0.00    +0.012 C 
ATOM     21  C   UNL     1     -12.969   4.647  24.351  0.00  0.00    +0.058 C 
ATOM     22  C   UNL     1     -12.394   4.199  23.181  0.00  0.00    +0.012 C 
ATOM     23  C   UNL     1     -12.929   3.174  22.440  0.00  0.00    +0.005 C 
ATOM     24 CL   UNL     1     -12.274   5.961  25.290  0.00  0.00    -0.082 Cl
ENDBRANCH  16  18
BRANCH  13  25
ATOM     25  O   UNL     1     -11.239  -3.023  25.504  0.00  0.00    -0.506 OA
ATOM     26  H   UNL     1     -11.290  -3.952  25.391  0.00  0.00    +0.292 HD
ENDBRANCH  13  25
ENDBRANCH   2   7
BRANCH   1  27
ATOM     27  C   UNL     1     -13.089  -3.356  19.938  0.00  0.00    +0.038 C 
ATOM     28  C   UNL     1     -12.080  -4.458  19.600  0.00  0.00    +0.073 C 
ATOM     29  N   UNL     1     -10.729  -3.927  19.597  0.00  0.00    -0.297 NA
ATOM     30  C   UNL     1     -10.662  -2.630  18.958  0.00  0.00    +0.069 C 
ATOM     31  C   UNL     1     -11.206  -2.752  17.565  0.00  0.00    +0.017 C 
ATOM     32  C   UNL     1     -12.669  -2.985  17.470  0.00  0.00    +0.002 C 
ATOM     33  C   UNL     1     -13.451  -2.585  18.684  0.00  0.00    +0.006 C 
ATOM     34  H   UNL     1     -10.121  -4.574  19.095  0.00  0.00    +0.123 HD
ENDBRANCH   1  27
BRANCH   5  35
ATOM     35  O   UNL     1     -16.158  -7.175  20.124  0.00  0.00    -0.503 OA
ATOM     36  H   UNL     1     -16.911  -7.607  20.476  0.00  0.00    +0.292 HD
ENDBRANCH   5  35
BRANCH   4  37
ATOM     37  O   UNL     1     -17.657  -5.904  22.147  0.00  0.00    -0.501 OA
ATOM     38  H   UNL     1     -18.140  -5.462  22.818  0.00  0.00    +0.292 HD
ENDBRANCH   4  37
BRANCH   3  39
ATOM     39  O   UNL     1     -16.848  -3.387  23.043  0.00  0.00    -0.450 OA
BRANCH  39  40
ATOM     40  C   UNL     1     -16.293  -3.458  24.337  0.00  0.00    +0.145 C 
ATOM     41  C   UNL     1     -16.307  -2.298  25.108  0.00  0.00    +0.035 C 
ATOM     42  C   UNL     1     -15.760  -2.350  26.395  0.00  0.00    +0.003 C 
ATOM     43  C   UNL     1     -15.766  -1.204  27.182  0.00  0.00    +0.000 C 
ATOM     44  C   UNL     1     -16.328  -0.042  26.637  0.00  0.00    +0.000 C 
ATOM     45  C   UNL     1     -16.330   1.096  27.428  0.00  0.00    +0.000 C 
ATOM     46  C   UNL     1     -15.796   1.065  28.698  0.00  0.00    +0.000 C 
ATOM     47  C   UNL     1     -15.252  -0.058  29.229  0.00  0.00    +0.000 C 
ATOM     48  C   UNL     1     -15.239  -1.217  28.448  0.00  0.00    +0.000 C 
ATOM     49  C   UNL     1     -16.864  -0.004  25.366  0.00  0.00    +0.000 C 
ATOM     50  C   UNL     1     -16.854  -1.135  24.597  0.00  0.00    +0.003 C 
ATOM     51  C   UNL     1     -15.225  -3.513  26.884  0.00  0.00    +0.000 C 
ATOM     52  C   UNL     1     -15.212  -4.677  26.105  0.00  0.00    +0.003 C 
ATOM     53  C   UNL     1     -15.751  -4.619  24.841  0.00  0.00    +0.037 C 
ENDBRANCH  39  40
ENDBRANCH   3  39
TORSDOF 8
