REMARK  Name = =
REMARK  0 active torsions:
REMARK  status: ('A' for Active; 'I' for Inactive)
REMARK                            x       y       z     vdW  Elec       q    Type
REMARK                         _______ _______ _______ _____ _____    ______ ____
ROOT
ATOM      1  C   UNL     1      -4.456  -3.110  32.144  0.00  0.00    +0.001 C 
ATOM      2  C   UNL     1      -4.377  -4.163  33.047  0.00  0.00    +0.016 C 
ATOM      3  C   UNL     1      -4.140  -5.460  32.627  0.00  0.00    +0.059 C 
ATOM      4  N   UNL     1      -4.014  -6.693  33.329  0.00  0.00    -0.315 N 
ATOM      5  C   UNL     1      -3.812  -7.739  32.377  0.00  0.00    +0.182 C 
ATOM      6  N   UNL     1      -3.754  -7.058  31.097  0.00  0.00    -0.315 N 
ATOM      7  C   UNL     1      -3.982  -5.670  31.263  0.00  0.00    +0.059 C 
ATOM      8  C   UNL     1      -4.057  -4.636  30.344  0.00  0.00    +0.016 C 
ATOM      9  C   UNL     1      -4.296  -3.350  30.800  0.00  0.00    +0.001 C 
ATOM     10  H   UNL     1      -4.059  -6.806  34.306  0.00  0.00    +0.148 HD
ATOM     11  H   UNL     1      -3.580  -7.499  30.234  0.00  0.00    +0.148 HD
ENDROOT
TORSDOF 0
