REMARK  Name = =
REMARK  3 active torsions:
REMARK  status: ('A' for Active; 'I' for Inactive)
REMARK    1  A    between atoms: N_1  and  C_2
REMARK    2  A    between atoms: N_1  and  C_11
REMARK    3  A    between atoms: C_14  and  C_17
REMARK                            x       y       z     vdW  Elec       q    Type
REMARK                         _______ _______ _______ _____ _____    ______ ____
ROOT
ATOM      1  N   UNL     1      -5.164  -1.847  32.752  0.00  0.00    -0.312 N 
ATOM      2  H   UNL     1      -4.689  -1.549  33.561  0.00  0.00    +0.152 HD
ENDROOT
BRANCH   1   3
ATOM      3  C   UNL     1      -4.853  -3.134  32.260  0.00  0.00    +0.050 C 
ATOM      4  C   UNL     1      -4.777  -4.212  33.156  0.00  0.00    +0.030 C 
ATOM      5  C   UNL     1      -4.454  -5.487  32.762  0.00  0.00    +0.060 C 
ATOM      6  N   UNL     1      -4.329  -6.684  33.511  0.00  0.00    -0.315 N 
ATOM      7  C   UNL     1      -4.438  -7.772  32.557  0.00  0.00    +0.182 C 
ATOM      8  N   UNL     1      -3.883  -7.170  31.355  0.00  0.00    -0.315 N 
ATOM      9  C   UNL     1      -4.184  -5.763  31.440  0.00  0.00    +0.059 C 
ATOM     10  C   UNL     1      -4.250  -4.728  30.543  0.00  0.00    +0.017 C 
ATOM     11  C   UNL     1      -4.578  -3.439  30.945  0.00  0.00    +0.016 C 
ATOM     12  H   UNL     1      -4.195  -6.762  34.483  0.00  0.00    +0.148 HD
ATOM     13  H   UNL     1      -3.400  -7.630  30.631  0.00  0.00    +0.148 HD
ENDBRANCH   1   3
BRANCH   1  14
ATOM     14  C   UNL     1      -6.097  -0.950  32.186  0.00  0.00    +0.048 C 
ATOM     15  C   UNL     1      -5.716   0.363  31.866  0.00  0.00    +0.015 C 
ATOM     16  C   UNL     1      -6.562   1.300  31.344  0.00  0.00    +0.006 C 
ATOM     17  C   UNL     1      -7.880   0.942  31.113  0.00  0.00    +0.053 C 
ATOM     18  C   UNL     1      -8.300  -0.324  31.407  0.00  0.00    +0.006 C 
ATOM     19  C   UNL     1      -7.416  -1.247  31.936  0.00  0.00    +0.015 C 
BRANCH  17  20
ATOM     20  C   UNL     1      -8.783   1.930  30.558  0.00  0.00    +0.243 C 
ATOM     21  O   UNL     1      -8.371   3.071  30.280  0.00  0.00    -0.270 OA
ATOM     22  N   UNL     1     -10.131   1.585  30.337  0.00  0.00    -0.325 N 
ATOM     23  H   UNL     1     -10.450   0.681  30.559  0.00  0.00    +0.145 HD
ATOM     24  H   UNL     1     -10.754   2.248  29.960  0.00  0.00    +0.145 HD
ENDBRANCH  17  20
ENDBRANCH   1  14
TORSDOF 3
