REMARK  Name = =
REMARK  4 active torsions:
REMARK  status: ('A' for Active; 'I' for Inactive)
REMARK    1  A    between atoms: C_1  and  N_17
REMARK    2  A    between atoms: C_9  and  C_10
REMARK    3  A    between atoms: N_17  and  C_18
REMARK    4  A    between atoms: C_21  and  C_24
REMARK                            x       y       z     vdW  Elec       q    Type
REMARK                         _______ _______ _______ _____ _____    ______ ____
ROOT
ATOM      1  C   UNL     1      -2.237  -4.607  30.637  0.00  0.00    +0.047 C 
ATOM      2  C   UNL     1      -3.055  -5.475  31.375  0.00  0.00    +0.030 C 
ATOM      3  C   UNL     1      -3.137  -6.816  31.046  0.00  0.00    +0.060 C 
ATOM      4  N   UNL     1      -3.894  -7.849  31.657  0.00  0.00    -0.315 N 
ATOM      5  C   UNL     1      -3.637  -9.073  30.893  0.00  0.00    +0.182 C 
ATOM      6  N   UNL     1      -2.692  -8.677  29.893  0.00  0.00    -0.315 N 
ATOM      7  C   UNL     1      -2.404  -7.287  29.981  0.00  0.00    +0.059 C 
ATOM      8  C   UNL     1      -1.602  -6.423  29.259  0.00  0.00    +0.014 C 
ATOM      9  C   UNL     1      -1.503  -5.060  29.573  0.00  0.00    +0.011 C 
ATOM     10  H   UNL     1      -4.480  -7.760  32.443  0.00  0.00    +0.148 HD
ATOM     11  H   UNL     1      -2.294  -9.287  29.231  0.00  0.00    +0.148 HD
ENDROOT
BRANCH   9  12
ATOM     12  C   UNL     1      -0.667  -4.240  28.723  0.00  0.00    +0.156 C 
ATOM     13  S   UNL     1       0.752  -3.511  29.643  0.00  0.00    -0.044 S 
ATOM     14  C   UNL     1       0.666  -1.881  28.904  0.00  0.00    +0.279 C 
ATOM     15  O   UNL     1       1.447  -0.948  29.215  0.00  0.00    -0.263 OA
ATOM     16  N   UNL     1      -0.401  -1.950  27.993  0.00  0.00    -0.246 N 
ATOM     17  C   UNL     1      -1.273  -3.021  28.155  0.00  0.00    +0.243 C 
ATOM     18  O   UNL     1      -2.515  -2.986  27.845  0.00  0.00    -0.273 OA
ATOM     19  H   UNL     1      -0.524  -1.280  27.282  0.00  0.00    +0.158 HD
ENDBRANCH   9  12
BRANCH   1  20
ATOM     20  N   UNL     1      -2.166  -3.257  30.992  0.00  0.00    -0.313 N 
ATOM     21  H   UNL     1      -1.287  -2.819  31.067  0.00  0.00    +0.152 HD
BRANCH  20  22
ATOM     22  C   UNL     1      -3.349  -2.508  31.246  0.00  0.00    +0.048 C 
ATOM     23  C   UNL     1      -4.315  -2.964  32.103  0.00  0.00    +0.015 C 
ATOM     24  C   UNL     1      -5.450  -2.233  32.317  0.00  0.00    +0.006 C 
ATOM     25  C   UNL     1      -5.671  -1.039  31.700  0.00  0.00    +0.053 C 
ATOM     26  C   UNL     1      -4.704  -0.545  30.820  0.00  0.00    +0.006 C 
ATOM     27  C   UNL     1      -3.564  -1.282  30.606  0.00  0.00    +0.015 C 
BRANCH  25  28
ATOM     28  C   UNL     1      -6.892  -0.306  31.964  0.00  0.00    +0.243 C 
ATOM     29  O   UNL     1      -7.085   0.811  31.414  0.00  0.00    -0.270 OA
ATOM     30  N   UNL     1      -7.872  -0.825  32.832  0.00  0.00    -0.325 N 
ATOM     31  H   UNL     1      -7.732  -1.697  33.267  0.00  0.00    +0.145 HD
ATOM     32  H   UNL     1      -8.697  -0.316  33.003  0.00  0.00    +0.145 HD
ENDBRANCH  25  28
ENDBRANCH  20  22
ENDBRANCH   1  20
TORSDOF 4
