REMARK  Name = =
REMARK  6 active torsions:
REMARK  status: ('A' for Active; 'I' for Inactive)
REMARK    1  A    between atoms: C_1  and  N_17
REMARK    2  A    between atoms: C_9  and  C_10
REMARK    3  A    between atoms: N_17  and  C_18
REMARK    4  A    between atoms: C_19  and  C_27
REMARK    5  A    between atoms: C_21  and  C_24
REMARK    6  A    between atoms: C_27  and  N_28
REMARK                            x       y       z     vdW  Elec       q    Type
REMARK                         _______ _______ _______ _____ _____    ______ ____
ROOT
ATOM      1  C   UNL     1      -2.283  -4.192  30.465  0.00  0.00    +0.047 C 
ATOM      2  C   UNL     1      -3.056  -5.113  31.115  0.00  0.00    +0.030 C 
ATOM      3  C   UNL     1      -2.685  -6.460  31.284  0.00  0.00    +0.060 C 
ATOM      4  N   UNL     1      -3.323  -7.566  31.915  0.00  0.00    -0.315 N 
ATOM      5  C   UNL     1      -2.651  -8.763  31.461  0.00  0.00    +0.182 C 
ATOM      6  N   UNL     1      -1.351  -8.254  31.070  0.00  0.00    -0.315 N 
ATOM      7  C   UNL     1      -1.479  -6.872  30.765  0.00  0.00    +0.059 C 
ATOM      8  C   UNL     1      -0.688  -5.959  30.106  0.00  0.00    +0.014 C 
ATOM      9  C   UNL     1      -1.074  -4.616  29.947  0.00  0.00    +0.011 C 
ATOM     10  H   UNL     1      -4.080  -7.523  32.543  0.00  0.00    +0.148 HD
ATOM     11  H   UNL     1      -0.519  -8.778  31.024  0.00  0.00    +0.148 HD
ENDROOT
BRANCH   9  12
ATOM     12  C   UNL     1      -0.146  -3.726  29.253  0.00  0.00    +0.156 C 
ATOM     13  S   UNL     1      -0.311  -3.794  27.442  0.00  0.00    -0.044 S 
ATOM     14  C   UNL     1       1.255  -4.629  27.103  0.00  0.00    +0.279 C 
ATOM     15  O   UNL     1       1.758  -4.845  25.958  0.00  0.00    -0.263 OA
ATOM     16  N   UNL     1       1.746  -4.961  28.391  0.00  0.00    -0.246 N 
ATOM     17  C   UNL     1       1.279  -4.147  29.420  0.00  0.00    +0.243 C 
ATOM     18  O   UNL     1       1.946  -3.766  30.428  0.00  0.00    -0.273 OA
ATOM     19  H   UNL     1       2.368  -5.708  28.546  0.00  0.00    +0.158 HD
ENDBRANCH   9  12
BRANCH   1  20
ATOM     20  N   UNL     1      -2.723  -2.871  30.236  0.00  0.00    -0.313 N 
ATOM     21  H   UNL     1      -2.145  -2.334  29.647  0.00  0.00    +0.152 HD
BRANCH  20  22
ATOM     22  C   UNL     1      -3.854  -2.211  30.719  0.00  0.00    +0.046 C 
ATOM     23  C   UNL     1      -4.041  -0.856  30.415  0.00  0.00    +0.007 C 
ATOM     24  C   UNL     1      -5.119  -0.185  30.941  0.00  0.00    +0.003 C 
ATOM     25  C   UNL     1      -6.047  -0.787  31.772  0.00  0.00    +0.053 C 
ATOM     26  C   UNL     1      -5.858  -2.104  32.065  0.00  0.00    +0.006 C 
ATOM     27  C   UNL     1      -4.766  -2.798  31.538  0.00  0.00    +0.014 C 
BRANCH  25  28
ATOM     28  C   UNL     1      -7.183  -0.043  32.313  0.00  0.00    +0.243 C 
ATOM     29  O   UNL     1      -7.327   1.161  31.996  0.00  0.00    -0.270 OA
ATOM     30  N   UNL     1      -8.112  -0.649  33.179  0.00  0.00    -0.325 N 
ATOM     31  H   UNL     1      -8.005  -1.594  33.432  0.00  0.00    +0.145 HD
ATOM     32  H   UNL     1      -8.869  -0.128  33.532  0.00  0.00    +0.145 HD
ENDBRANCH  25  28
BRANCH  23  33
ATOM     33  C   UNL     1      -3.080  -0.143  29.525  0.00  0.00    +0.093 C 
BRANCH  33  34
ATOM     34  N   UNL     1      -3.555   1.183  29.304  0.00  0.00    -0.317 NA
ATOM     35  H   UNL     1      -2.904   1.680  28.696  0.00  0.00    +0.119 HD
ATOM     36  H   UNL     1      -3.627   1.672  30.197  0.00  0.00    +0.119 HD
ENDBRANCH  33  34
ENDBRANCH  23  33
ENDBRANCH  20  22
ENDBRANCH   1  20
TORSDOF 6
