REMARK  Name = =
REMARK  7 active torsions:
REMARK  status: ('A' for Active; 'I' for Inactive)
REMARK    1  A    between atoms: N_1  and  C_2
REMARK    2  A    between atoms: N_1  and  C_18
REMARK    3  A    between atoms: C_10  and  C_11
REMARK    4  A    between atoms: C_19  and  C_32
REMARK    5  A    between atoms: C_21  and  C_29
REMARK    6  A    between atoms: C_23  and  C_24
REMARK    7  A    between atoms: C_32  and  N_33
REMARK                            x       y       z     vdW  Elec       q    Type
REMARK                         _______ _______ _______ _____ _____    ______ ____
ROOT
ATOM      1  N   UNL     1      -1.816  -3.492  30.942  0.00  0.00    -0.313 N 
ATOM      2  H   UNL     1      -1.155  -3.030  31.506  0.00  0.00    +0.152 HD
ENDROOT
BRANCH   1   3
ATOM      3  C   UNL     1      -1.337  -4.312  29.891  0.00  0.00    +0.047 C 
ATOM      4  C   UNL     1      -1.937  -5.569  29.672  0.00  0.00    +0.030 C 
ATOM      5  C   UNL     1      -1.469  -6.440  28.722  0.00  0.00    +0.060 C 
ATOM      6  N   UNL     1      -1.856  -7.737  28.286  0.00  0.00    -0.315 N 
ATOM      7  C   UNL     1      -0.740  -8.324  27.560  0.00  0.00    +0.182 C 
ATOM      8  N   UNL     1      -0.085  -7.148  27.043  0.00  0.00    -0.315 N 
ATOM      9  C   UNL     1      -0.365  -6.087  27.937  0.00  0.00    +0.059 C 
ATOM     10  C   UNL     1       0.203  -4.858  28.164  0.00  0.00    +0.014 C 
ATOM     11  C   UNL     1      -0.267  -3.965  29.129  0.00  0.00    +0.011 C 
ATOM     12  H   UNL     1      -2.728  -8.164  28.447  0.00  0.00    +0.148 HD
ATOM     13  H   UNL     1       0.456  -7.093  26.222  0.00  0.00    +0.148 HD
BRANCH  11  14
ATOM     14  C   UNL     1       0.404  -2.665  29.193  0.00  0.00    +0.156 C 
ATOM     15  S   UNL     1       2.114  -2.848  28.440  0.00  0.00    -0.044 S 
ATOM     16  C   UNL     1       1.525  -2.670  26.734  0.00  0.00    +0.279 C 
ATOM     17  O   UNL     1       2.184  -2.928  25.703  0.00  0.00    -0.263 OA
ATOM     18  N   UNL     1       0.200  -2.190  26.872  0.00  0.00    -0.246 N 
ATOM     19  C   UNL     1      -0.068  -1.658  28.176  0.00  0.00    +0.243 C 
ATOM     20  O   UNL     1      -0.595  -0.546  28.412  0.00  0.00    -0.273 OA
ATOM     21  H   UNL     1      -0.467  -2.219  26.149  0.00  0.00    +0.158 HD
ENDBRANCH  11  14
ENDBRANCH   1   3
BRANCH   1  22
ATOM     22  C   UNL     1      -3.175  -3.299  31.227  0.00  0.00    +0.042 C 
ATOM     23  C   UNL     1      -3.808  -2.145  30.836  0.00  0.00    +0.007 C 
ATOM     24  C   UNL     1      -5.168  -1.947  31.119  0.00  0.00    +0.003 C 
ATOM     25  C   UNL     1      -5.876  -2.914  31.792  0.00  0.00    +0.053 C 
ATOM     26  C   UNL     1      -5.217  -4.071  32.176  0.00  0.00    +0.002 C 
ATOM     27  C   UNL     1      -3.880  -4.258  31.895  0.00  0.00    +0.002 C 
BRANCH  27  28
ATOM     28  C   UNL     1      -3.192  -5.479  32.301  0.00  0.00    +0.088 C 
ATOM     29  S   UNL     1      -3.608  -5.988  34.022  0.00  0.00    -0.118 S 
ATOM     30  C   UNL     1      -3.841  -7.780  33.663  0.00  0.00    +0.128 C 
ATOM     31  N   UNL     1      -3.233  -7.851  32.349  0.00  0.00    -0.287 NA
ATOM     32  C   UNL     1      -3.700  -6.721  31.581  0.00  0.00    +0.085 C 
ATOM     33  H   UNL     1      -3.505  -8.719  31.888  0.00  0.00    +0.124 HD
ENDBRANCH  27  28
BRANCH  25  34
ATOM     34  C   UNL     1      -7.286  -2.700  32.080  0.00  0.00    +0.243 C 
ATOM     35  O   UNL     1      -7.881  -3.444  32.893  0.00  0.00    -0.270 OA
ATOM     36  N   UNL     1      -8.004  -1.659  31.453  0.00  0.00    -0.325 N 
ATOM     37  H   UNL     1      -7.551  -1.065  30.811  0.00  0.00    +0.145 HD
ATOM     38  H   UNL     1      -8.958  -1.527  31.657  0.00  0.00    +0.145 HD
ENDBRANCH  25  34
BRANCH  23  39
ATOM     39  C   UNL     1      -3.099  -1.086  30.118  0.00  0.00    +0.093 C 
BRANCH  39  40
ATOM     40  N   UNL     1      -3.857   0.145  30.175  0.00  0.00    -0.317 NA
ATOM     41  H   UNL     1      -3.355   0.877  29.672  0.00  0.00    +0.119 HD
ATOM     42  H   UNL     1      -3.980   0.424  31.148  0.00  0.00    +0.119 HD
ENDBRANCH  39  40
ENDBRANCH  23  39
ENDBRANCH   1  22
TORSDOF 7
