REMARK  Name = =
REMARK  9 active torsions:
REMARK  status: ('A' for Active; 'I' for Inactive)
REMARK    1  A    between atoms: C_1  and  N_20
REMARK    2  A    between atoms: C_2  and  C_37
REMARK    3  A    between atoms: C_4  and  C_17
REMARK    4  A    between atoms: C_6  and  C_7
REMARK    5  A    between atoms: C_11  and  C_14
REMARK    6  A    between atoms: C_14  and  O_16
REMARK    7  A    between atoms: N_20  and  C_21
REMARK    8  A    between atoms: C_29  and  C_30
REMARK    9  A    between atoms: C_37  and  N_38
REMARK                            x       y       z     vdW  Elec       q    Type
REMARK                         _______ _______ _______ _____ _____    ______ ____
ROOT
ATOM      1  C   UNL     1       1.756  -5.849  28.515  0.00  0.00    +0.042 C 
ATOM      2  C   UNL     1       1.701  -4.541  28.161  0.00  0.00    +0.007 C 
ATOM      3  C   UNL     1       2.629  -4.044  27.273  0.00  0.00    +0.003 C 
ATOM      4  C   UNL     1       3.607  -4.868  26.746  0.00  0.00    +0.053 C 
ATOM      5  C   UNL     1       3.637  -6.208  27.128  0.00  0.00    +0.002 C 
ATOM      6  C   UNL     1       2.716  -6.708  28.011  0.00  0.00    +0.003 C 
ENDROOT
BRANCH   6   7
ATOM      7  C   UNL     1       2.785  -8.145  28.365  0.00  0.00    +0.092 C 
ATOM      8  S   UNL     1       4.095  -8.906  27.365  0.00  0.00    -0.113 S 
ATOM      9  C   UNL     1       3.043  -9.680  26.119  0.00  0.00    +0.153 C 
ATOM     10  N   UNL     1       1.718  -9.372  26.572  0.00  0.00    -0.260 N 
ATOM     11  C   UNL     1       0.594  -9.610  25.700  0.00  0.00    +0.326 C 
ATOM     12  O   UNL     1      -0.541  -9.312  26.145  0.00  0.00    -0.263 OA
ATOM     13  C   UNL     1       1.590  -8.861  27.879  0.00  0.00    +0.110 C 
BRANCH  11  14
ATOM     14  C   UNL     1       0.693 -10.158  24.373  0.00  0.00    +0.393 C 
ATOM     15  O   UNL     1       1.212 -11.276  24.154  0.00  0.00    -0.240 OA
BRANCH  14  16
ATOM     16  O   UNL     1       0.208  -9.451  23.290  0.00  0.00    -0.474 OA
ATOM     17  H   UNL     1      -0.187  -8.611  23.418  0.00  0.00    +0.296 HD
ENDBRANCH  14  16
ENDBRANCH  11  14
ENDBRANCH   6   7
BRANCH   4  18
ATOM     18  C   UNL     1       4.582  -4.338  25.811  0.00  0.00    +0.243 C 
ATOM     19  O   UNL     1       5.755  -4.771  25.793  0.00  0.00    -0.270 OA
ATOM     20  N   UNL     1       4.209  -3.320  24.908  0.00  0.00    -0.325 N 
ATOM     21  H   UNL     1       3.288  -2.971  24.913  0.00  0.00    +0.145 HD
ATOM     22  H   UNL     1       4.869  -2.959  24.273  0.00  0.00    +0.145 HD
ENDBRANCH   4  18
BRANCH   1  23
ATOM     23  N   UNL     1       0.792  -6.391  29.421  0.00  0.00    -0.313 N 
ATOM     24  H   UNL     1      -0.007  -6.851  29.075  0.00  0.00    +0.152 HD
BRANCH  23  25
ATOM     25  C   UNL     1       0.988  -6.265  30.806  0.00  0.00    +0.047 C 
ATOM     26  C   UNL     1       2.160  -5.658  31.236  0.00  0.00    +0.030 C 
ATOM     27  C   UNL     1       2.396  -5.496  32.574  0.00  0.00    +0.060 C 
ATOM     28  N   UNL     1       3.503  -4.914  33.296  0.00  0.00    -0.315 N 
ATOM     29  C   UNL     1       3.079  -4.767  34.659  0.00  0.00    +0.182 C 
ATOM     30  N   UNL     1       1.967  -5.647  34.804  0.00  0.00    -0.315 N 
ATOM     31  C   UNL     1       1.471  -5.937  33.495  0.00  0.00    +0.059 C 
ATOM     32  C   UNL     1       0.304  -6.541  33.055  0.00  0.00    +0.014 C 
ATOM     33  C   UNL     1       0.042  -6.716  31.692  0.00  0.00    +0.011 C 
ATOM     34  H   UNL     1       4.380  -4.666  32.924  0.00  0.00    +0.148 HD
ATOM     35  H   UNL     1       1.606  -5.993  35.652  0.00  0.00    +0.148 HD
BRANCH  33  36
ATOM     36  C   UNL     1      -1.194  -7.351  31.257  0.00  0.00    +0.156 C 
ATOM     37  S   UNL     1      -2.085  -8.111  32.687  0.00  0.00    -0.044 S 
ATOM     38  C   UNL     1      -3.723  -7.629  32.178  0.00  0.00    +0.279 C 
ATOM     39  O   UNL     1      -4.785  -7.941  32.722  0.00  0.00    -0.263 OA
ATOM     40  N   UNL     1      -3.542  -6.824  31.032  0.00  0.00    -0.246 N 
ATOM     41  C   UNL     1      -2.242  -6.324  30.883  0.00  0.00    +0.243 C 
ATOM     42  O   UNL     1      -1.909  -5.160  30.488  0.00  0.00    -0.273 OA
ATOM     43  H   UNL     1      -4.266  -6.631  30.394  0.00  0.00    +0.158 HD
ENDBRANCH  33  36
ENDBRANCH  23  25
ENDBRANCH   1  23
BRANCH   2  44
ATOM     44  C   UNL     1       0.647  -3.668  28.709  0.00  0.00    +0.093 C 
BRANCH  44  45
ATOM     45  N   UNL     1      -0.640  -3.989  28.114  0.00  0.00    -0.317 NA
ATOM     46  H   UNL     1      -1.357  -3.377  28.504  0.00  0.00    +0.119 HD
ATOM     47  H   UNL     1      -0.876  -4.960  28.317  0.00  0.00    +0.119 HD
ENDBRANCH  44  45
ENDBRANCH   2  44
TORSDOF 9
