MODEL 1
REMARK VINA RESULT:    -9.271      0.000      0.000
REMARK INTER + INTRA:         -17.657
REMARK INTER:                 -14.149
REMARK INTRA:                  -3.508
REMARK UNBOUND:                -3.508
REMARK  Name = =
REMARK  11 active torsions:
REMARK  status: ('A' for Active; 'I' for Inactive)
REMARK    1  A    between atoms: C_1  and  C_7
REMARK    2  A    between atoms: C_1  and  O_32
REMARK    3  A    between atoms: C_4  and  N_27
REMARK    4  A    between atoms: C_7  and  C_23
REMARK    5  A    between atoms: C_24  and  C_25
REMARK    6  A    between atoms: N_27  and  O_31
REMARK    7  A    between atoms: O_32  and  C_33
REMARK    8  A    between atoms: C_34  and  C_44
REMARK    9  A    between atoms: C_38  and  O_52
REMARK   10  A    between atoms: C_40  and  O_51
REMARK   11  A    between atoms: C_47  and  O_50
REMARK                            x       y       z     vdW  Elec       q    Type
REMARK                         _______ _______ _______ _____ _____    ______ ____
ROOT
ATOM      1  C   UNL     1       3.022  -5.259  27.512  0.00  0.00    +0.246 C 
ATOM      2  N   UNL     1       2.698  -5.071  26.099  0.00  0.00    -0.247 NA
ATOM      3  C   UNL     1       3.270  -4.040  25.383  0.00  0.00    +0.118 C 
ATOM      4  C   UNL     1       3.788  -2.864  26.057  0.00  0.00    +0.090 C 
ATOM      5  C   UNL     1       4.020  -2.919  27.344  0.00  0.00    +0.076 C 
ATOM      6  N   UNL     1       3.757  -4.128  28.034  0.00  0.00    -0.291 N 
ATOM      7  H   UNL     1       1.688  -4.939  26.045  0.00  0.00    +0.128 HD
ATOM      8  H   UNL     1       4.107  -4.206  28.951  0.00  0.00    +0.151 HD
ENDROOT
BRANCH   1   9
ATOM      9  C   UNL     1       1.650  -5.414  28.216  0.00  0.00    +0.083 C 
ATOM     10  C   UNL     1       1.375  -6.876  28.280  0.00  0.00    +0.011 C 
ATOM     11  C   UNL     1       0.396  -7.294  29.326  0.00  0.00    +0.008 C 
ATOM     12  C   UNL     1      -1.056  -7.254  28.899  0.00  0.00    +0.065 C 
ATOM     13  C   UNL     1      -1.850  -7.773  30.053  0.00  0.00    +0.151 C 
ATOM     14  O   UNL     1      -1.974  -8.968  30.258  0.00  0.00    -0.296 OA
ATOM     15  C   UNL     1      -2.512  -6.837  30.989  0.00  0.00    +0.065 C 
ATOM     16  C   UNL     1      -1.635  -6.418  32.154  0.00  0.00    +0.012 C 
ATOM     17  C   UNL     1      -1.131  -7.542  32.981  0.00  0.00    +0.048 C 
ATOM     18  C   UNL     1       0.382  -7.690  33.020  0.00  0.00    +0.208 C 
ATOM     19  O   UNL     1       1.064  -6.553  33.429  0.00  0.00    -0.448 OA
ATOM     20  C   UNL     1       2.130  -5.866  32.999  0.00  0.00    +0.317 C 
ATOM     21  O   UNL     1       3.318  -6.106  33.431  0.00  0.00    -0.250 OA
ATOM     22  C   UNL     1       2.024  -4.776  31.999  0.00  0.00    +0.110 C 
ATOM     23  C   UNL     1       2.568  -5.200  30.619  0.00  0.00    +0.012 C 
ATOM     24  C   UNL     1       1.660  -4.740  29.559  0.00  0.00    +0.011 C 
BRANCH   9  25
ATOM     25  C   UNL     1       0.574  -4.760  27.459  0.00  0.00    -0.017 C 
ATOM     26  C   UNL     1      -0.147  -3.741  27.874  0.00  0.00    +0.041 C 
BRANCH  26  27
ATOM     27  C   UNL     1      -1.209  -3.101  27.117  0.00  0.00    +0.234 C 
ATOM     28  O   UNL     1      -0.929  -2.446  26.071  0.00  0.00    -0.283 OA
ENDBRANCH  26  27
ENDBRANCH   9  25
ENDBRANCH   1   9
BRANCH   4  29
ATOM     29  N   UNL     1       4.052  -1.663  25.299  0.00  0.00    -0.136 N 
ATOM     30  C   UNL     1       3.001  -0.795  24.919  0.00  0.00    +0.327 C 
ATOM     31  O   UNL     1       3.236   0.249  24.271  0.00  0.00    -0.250 OA
ATOM     32  N   UNL     1       1.669  -1.165  25.306  0.00  0.00    -0.311 N 
ATOM     33  H   UNL     1       1.516  -1.992  25.815  0.00  0.00    +0.147 HD
ATOM     34  H   UNL     1       0.908  -0.590  25.061  0.00  0.00    +0.147 HD
BRANCH  29  35
ATOM     35  O   UNL     1       5.303  -1.374  24.958  0.00  0.00    -0.287 OA
ATOM     36  H   UNL     1       5.853  -2.169  25.044  0.00  0.00    +0.242 HD
ENDBRANCH  29  35
ENDBRANCH   4  29
BRANCH   1  37
ATOM     37  O   UNL     1       3.816  -6.360  27.574  0.00  0.00    -0.447 OA
BRANCH  37  38
ATOM     38  C   UNL     1       4.735  -7.163  27.140  0.00  0.00    +0.215 A 
ATOM     39  C   UNL     1       4.406  -8.382  26.559  0.00  0.00    +0.182 A 
ATOM     40  O   UNL     1       5.345  -9.219  26.126  0.00  0.00    -0.450 OA
ATOM     41  C   UNL     1       6.612  -9.008  26.186  0.00  0.00    +0.155 A 
ATOM     42  C   UNL     1       7.013  -7.820  26.741  0.00  0.00    +0.110 A 
ATOM     43  C   UNL     1       8.378  -7.541  26.830  0.00  0.00    +0.143 C 
ATOM     44  C   UNL     1       9.253  -8.491  26.346  0.00  0.00    +0.073 C 
ATOM     45  C   UNL     1       8.852  -9.685  25.787  0.00  0.00    +0.140 C 
ATOM     46  C   UNL     1       7.513  -9.948  25.705  0.00  0.00    +0.074 C 
ATOM     47  C   UNL     1       6.090  -6.886  27.222  0.00  0.00    +0.238 A 
ATOM     48  O   UNL     1       6.588  -5.845  27.698  0.00  0.00    -0.283 OA
BRANCH  39  49
ATOM     49  C   UNL     1       3.061  -8.898  26.352  0.00  0.00    +0.038 C 
ATOM     50  C   UNL     1       2.535  -9.822  27.198  0.00  0.00    +0.006 C 
ATOM     51  C   UNL     1       1.263 -10.352  26.924  0.00  0.00    +0.037 C 
ATOM     52  C   UNL     1       0.571  -9.929  25.814  0.00  0.00    +0.134 C 
ATOM     53  C   UNL     1       1.103  -8.995  24.961  0.00  0.00    +0.037 C 
ATOM     54  C   UNL     1       2.343  -8.474  25.219  0.00  0.00    +0.006 C 
BRANCH  52  55
ATOM     55  O   UNL     1      -0.686 -10.498  25.605  0.00  0.00    -0.506 OA
ATOM     56  H   UNL     1      -1.084 -11.015  26.277  0.00  0.00    +0.292 HD
ENDBRANCH  52  55
ENDBRANCH  39  49
BRANCH  45  57
ATOM     57  O   UNL     1       9.813 -10.594  25.320  0.00  0.00    -0.505 OA
ATOM     58  H   UNL     1      10.718 -10.465  25.526  0.00  0.00    +0.292 HD
ENDBRANCH  45  57
BRANCH  43  59
ATOM     59  O   UNL     1       8.778  -6.358  27.383  0.00  0.00    -0.505 OA
ATOM     60  H   UNL     1       8.643  -6.200  28.297  0.00  0.00    +0.292 HD
ENDBRANCH  43  59
ENDBRANCH  37  38
ENDBRANCH   1  37
TORSDOF 11
ENDMDL
