REMARK  Name = =
REMARK  4 active torsions:
REMARK  status: ('A' for Active; 'I' for Inactive)
REMARK    1  A    between atoms: N_1  and  C_19
REMARK    2  A    between atoms: C_12  and  O_34
REMARK    3  A    between atoms: C_19  and  C_24
REMARK    4  A    between atoms: C_27  and  C_29
REMARK                            x       y       z     vdW  Elec       q    Type
REMARK                         _______ _______ _______ _____ _____    ______ ____
ROOT
ATOM      1  N   UNL     1     -13.374 -43.690  27.304  0.00  0.00    -0.261 NA
ATOM      2  C   UNL     1     -12.760 -42.892  28.284  0.00  0.00    +0.067 C 
ATOM      3  C   UNL     1     -12.616 -43.609  29.603  0.00  0.00    +0.044 C 
ATOM      4  C   UNL     1     -11.602 -44.722  29.322  0.00  0.00    +0.065 C 
ATOM      5  C   UNL     1     -11.353 -45.698  30.403  0.00  0.00    +0.174 C 
ATOM      6  O   UNL     1      -9.948 -45.689  30.704  0.00  0.00    -0.476 OA
ATOM      7  C   UNL     1      -9.413 -44.509  30.160  0.00  0.00    +0.168 C 
ATOM      8  C   UNL     1     -10.344 -43.941  29.375  0.00  0.00    +0.014 C 
ATOM      9  C   UNL     1     -10.275 -42.796  28.660  0.00  0.00    -0.022 C 
ATOM     10  C   UNL     1      -9.092 -42.109  28.738  0.00  0.00    -0.001 C 
ATOM     11  C   UNL     1      -8.053 -42.623  29.532  0.00  0.00    +0.039 C 
ATOM     12  C   UNL     1      -8.216 -43.825  30.245  0.00  0.00    +0.167 C 
ATOM     13  C   UNL     1     -11.436 -42.291  27.885  0.00  0.00    +0.042 C 
ATOM     14  C   UNL     1     -12.239 -45.514  31.598  0.00  0.00    +0.070 C 
ATOM     15  C   UNL     1     -13.601 -45.046  31.214  0.00  0.00    -0.027 C 
ATOM     16  C   UNL     1     -13.805 -44.118  30.243  0.00  0.00    -0.029 C 
ATOM     17  C   UNL     1     -11.863 -45.399  28.028  0.00  0.00    +0.025 C 
ATOM     18  C   UNL     1     -13.251 -45.096  27.470  0.00  0.00    +0.074 C 
ENDROOT
BRANCH   1  19
ATOM     19  C   UNL     1     -14.106 -43.181  26.253  0.00  0.00    +0.155 C 
ATOM     20  S   UNL     1     -14.227 -44.450  24.919  0.00  0.00    -0.101 S 
ATOM     21  C   UNL     1     -13.779 -43.331  23.534  0.00  0.00    +0.129 C 
ATOM     22  N   UNL     1     -14.033 -42.044  24.182  0.00  0.00    -0.286 NA
ATOM     23  C   UNL     1     -13.294 -42.149  25.449  0.00  0.00    +0.102 C 
ATOM     24  H   UNL     1     -15.030 -41.911  24.351  0.00  0.00    +0.124 HD
BRANCH  19  25
ATOM     25  C   UNL     1     -15.440 -42.630  26.557  0.00  0.00    +0.178 C 
ATOM     26  O   UNL     1     -15.729 -41.772  27.493  0.00  0.00    -0.356 OA
ATOM     27  N   UNL     1     -17.002 -41.494  27.489  0.00  0.00    -0.081 NA
ATOM     28  C   UNL     1     -17.638 -42.185  26.508  0.00  0.00    +0.108 C 
ATOM     29  C   UNL     1     -16.607 -42.921  25.910  0.00  0.00    +0.056 C 
BRANCH  28  30
ATOM     30  C   UNL     1     -19.071 -42.166  26.123  0.00  0.00    +0.087 C 
ATOM     31  C   UNL     1     -20.001 -41.998  27.236  0.00  0.00    -0.016 C 
ATOM     32  C   UNL     1     -20.801 -40.950  27.102  0.00  0.00    -0.004 C 
ATOM     33  C   UNL     1     -20.507 -40.247  25.836  0.00  0.00    -0.004 C 
ATOM     34  C   UNL     1     -19.385 -41.000  25.212  0.00  0.00    -0.016 C 
ENDBRANCH  28  30
ENDBRANCH  19  25
ENDBRANCH   1  19
BRANCH  12  35
ATOM     35  O   UNL     1      -7.190 -44.312  31.018  0.00  0.00    -0.503 OA
ATOM     36  H   UNL     1      -7.300 -45.113  31.492  0.00  0.00    +0.292 HD
ENDBRANCH  12  35
TORSDOF 4
