REMARK  Name = =
REMARK  12 active torsions:
REMARK  status: ('A' for Active; 'I' for Inactive)
REMARK    1  A    between atoms: O_1  and  C_2
REMARK    2  A    between atoms: O_1  and  O_12
REMARK    3  A    between atoms: C_4  and  O_11
REMARK    4  A    between atoms: C_6  and  O_10
REMARK    5  A    between atoms: C_7  and  C_8
REMARK    6  A    between atoms: O_12  and  C_13
REMARK    7  A    between atoms: C_13  and  S_15
REMARK    8  A    between atoms: S_15  and  S_16
REMARK    9  A    between atoms: S_16  and  S_17
REMARK   10  A    between atoms: S_17  and  S_18
REMARK   11  A    between atoms: S_18  and  C_19
REMARK   12  A    between atoms: C_19  and  O_21
REMARK                            x       y       z     vdW  Elec       q    Type
REMARK                         _______ _______ _______ _____ _____    ______ ____
ROOT
ATOM      1  O   UNL     1      -9.970 -44.056  30.601  0.00  0.00    -0.285 OA
ENDROOT
BRANCH   1   2
ATOM      2  C   UNL     1      -9.516 -43.492  31.775  0.00  0.00    +0.205 C 
ATOM      3  C   UNL     1     -10.368 -42.896  32.652  0.00  0.00    +0.079 C 
ATOM      4  C   UNL     1      -9.941 -42.328  33.826  0.00  0.00    +0.140 C 
ATOM      5  C   UNL     1      -8.611 -42.369  34.112  0.00  0.00    +0.073 C 
ATOM      6  C   UNL     1      -7.679 -42.969  33.251  0.00  0.00    +0.143 C 
ATOM      7  C   UNL     1      -8.148 -43.520  32.097  0.00  0.00    +0.115 C 
BRANCH   7   8
ATOM      8  C   UNL     1      -7.275 -44.165  31.133  0.00  0.00    +0.240 C 
ATOM      9  O   UNL     1      -6.033 -44.224  31.180  0.00  0.00    -0.283 OA
ENDBRANCH   7   8
BRANCH   6  10
ATOM     10  O   UNL     1      -6.364 -42.961  33.624  0.00  0.00    -0.505 OA
ATOM     11  H   UNL     1      -6.109 -42.564  34.433  0.00  0.00    +0.292 HD
ENDBRANCH   6  10
BRANCH   4  12
ATOM     12  O   UNL     1     -10.842 -41.717  34.719  0.00  0.00    -0.505 OA
ATOM     13  H   UNL     1     -11.757 -41.691  34.517  0.00  0.00    +0.292 HD
ENDBRANCH   4  12
ENDBRANCH   1   2
BRANCH   1  14
ATOM     14  O   UNL     1     -10.721 -43.424  29.693  0.00  0.00    -0.272 OA
BRANCH  14  15
ATOM     15  C   UNL     1     -12.053 -43.635  29.444  0.00  0.00    +0.268 C 
ATOM     16  S   UNL     1     -13.134 -43.281  30.614  0.00  0.00    +0.002 S 
BRANCH  15  17
ATOM     17  S   UNL     1     -12.672 -44.281  27.898  0.00  0.00    +0.005 S 
BRANCH  17  18
ATOM     18  S   UNL     1     -14.735 -43.840  27.651  0.00  0.00    -0.004 S 
BRANCH  18  19
ATOM     19  S   UNL     1     -15.013 -41.923  26.772  0.00  0.00    -0.004 S 
BRANCH  19  20
ATOM     20  S   UNL     1     -15.216 -42.056  24.673  0.00  0.00    +0.000 S 
BRANCH  20  21
ATOM     21  C   UNL     1     -16.928 -41.920  24.239  0.00  0.00    +0.209 C 
ATOM     22  S   UNL     1     -17.372 -41.949  22.681  0.00  0.00    -0.003 S 
BRANCH  21  23
ATOM     23  O   UNL     1     -17.884 -41.790  25.218  0.00  0.00    -0.495 OA
ATOM     24  H   UNL     1     -17.631 -41.773  26.120  0.00  0.00    +0.293 HD
ENDBRANCH  21  23
ENDBRANCH  20  21
ENDBRANCH  19  20
ENDBRANCH  18  19
ENDBRANCH  17  18
ENDBRANCH  15  17
ENDBRANCH  14  15
ENDBRANCH   1  14
TORSDOF 12
