REMARK  Name = =
REMARK  8 active torsions:
REMARK  status: ('A' for Active; 'I' for Inactive)
REMARK    1  A    between atoms: N_1  and  N_13
REMARK    2  A    between atoms: C_4  and  S_20
REMARK    3  A    between atoms: C_11  and  C_14
REMARK    4  A    between atoms: C_14  and  C_16
REMARK    5  A    between atoms: N_15  and  O_19
REMARK    6  A    between atoms: S_20  and  C_21
REMARK    7  A    between atoms: C_24  and  O_32
REMARK    8  A    between atoms: O_29  and  O_30
REMARK                            x       y       z     vdW  Elec       q    Type
REMARK                         _______ _______ _______ _____ _____    ______ ____
ROOT
ATOM      1  N   UNL     1     -14.516 -43.197  26.856  0.00  0.00    -0.154 N 
ATOM      2  C   UNL     1     -13.327 -43.844  26.455  0.00  0.00    +0.258 C 
ATOM      3  O   UNL     1     -13.274 -44.815  25.666  0.00  0.00    -0.272 OA
ATOM      4  C   UNL     1     -12.176 -43.206  27.099  0.00  0.00    +0.139 C 
ATOM      5  C   UNL     1     -12.768 -42.192  28.059  0.00  0.00    +0.108 C 
ATOM      6  C   UNL     1     -14.253 -42.378  27.979  0.00  0.00    +0.249 C 
ATOM      7  O   UNL     1     -15.044 -41.856  28.812  0.00  0.00    -0.273 OA
ENDROOT
BRANCH   1  13
ATOM      8  S   UNL     1     -15.134 -41.048  24.675  0.00  0.00    -0.050 S 
ATOM      9  C   UNL     1     -16.190 -42.480  25.222  0.00  0.00    +0.176 C 
ATOM     10  N   UNL     1     -17.113 -42.344  24.510  0.00  0.00    -0.221 NA
ATOM     11  C   UNL     1     -17.347 -41.444  23.588  0.00  0.00    +0.115 C 
ATOM     12  C   UNL     1     -16.355 -40.494  23.412  0.00  0.00    +0.059 C 
ATOM     13  N   UNL     1     -15.743 -43.347  26.245  0.00  0.00    -0.233 N 
ATOM     14  H   UNL     1     -16.329 -44.085  26.532  0.00  0.00    +0.173 HD
BRANCH  11  15
ATOM     15  C   UNL     1     -18.592 -41.430  22.762  0.00  0.00    +0.190 C 
ATOM     16  N   UNL     1     -18.677 -40.729  21.707  0.00  0.00    -0.080 NA
BRANCH  15  17
ATOM     17  C   UNL     1     -19.732 -42.248  23.191  0.00  0.00    +0.265 C 
ATOM     18  O   UNL     1     -20.745 -42.299  22.482  0.00  0.00    -0.269 OA
ATOM     19  N   UNL     1     -19.661 -42.961  24.403  0.00  0.00    -0.324 N 
ATOM     20  H   UNL     1     -18.849 -42.911  24.957  0.00  0.00    +0.145 HD
ATOM     21  H   UNL     1     -20.424 -43.510  24.697  0.00  0.00    +0.145 HD
ENDBRANCH  15  17
BRANCH  16  22
ATOM     22  O   UNL     1     -17.718 -39.952  21.219  0.00  0.00    -0.409 OA
ATOM     23  H   UNL     1     -17.864 -39.466  20.431  0.00  0.00    +0.328 HD
ENDBRANCH  16  22
ENDBRANCH  11  15
ENDBRANCH   1  13
BRANCH   4  24
ATOM     24  S   UNL     1     -11.258 -44.507  27.973  0.00  0.00    -0.105 S 
BRANCH  24  25
ATOM     25  C   UNL     1      -9.895 -43.795  28.848  0.00  0.00    +0.026 C 
ATOM     26  C   UNL     1      -9.445 -44.416  29.993  0.00  0.00    +0.009 C 
ATOM     27  C   UNL     1      -8.384 -43.838  30.635  0.00  0.00    +0.037 C 
ATOM     28  C   UNL     1      -7.739 -42.670  30.199  0.00  0.00    +0.134 C 
ATOM     29  C   UNL     1      -8.222 -42.082  29.049  0.00  0.00    +0.037 C 
ATOM     30  C   UNL     1      -9.294 -42.620  28.356  0.00  0.00    +0.009 C 
BRANCH  28  31
ATOM     31  O   UNL     1      -6.665 -42.156  30.917  0.00  0.00    -0.506 OA
ATOM     32  H   UNL     1      -6.370 -42.589  31.694  0.00  0.00    +0.292 HD
ENDBRANCH  28  31
ENDBRANCH  24  25
ENDBRANCH   4  24
TORSDOF 7
REMARK  Name = =
REMARK  8 active torsions:
REMARK  status: ('A' for Active; 'I' for Inactive)
REMARK    1  A    between atoms: N_1  and  N_13
REMARK    2  A    between atoms: C_4  and  S_20
REMARK    3  A    between atoms: C_11  and  C_14
REMARK    4  A    between atoms: C_14  and  C_16
REMARK    5  A    between atoms: N_15  and  O_19
REMARK    6  A    between atoms: S_20  and  C_21
REMARK    7  A    between atoms: C_24  and  O_32
REMARK    8  A    between atoms: O_29  and  O_30
REMARK                            x       y       z     vdW  Elec       q    Type
REMARK                         _______ _______ _______ _____ _____    ______ ____
ROOT
ATOM      1  P   UNL     1     -10.185 -45.942  30.490  0.00  0.00    +0.000 P 
ENDROOT
TORSDOF 0
REMARK  Name = =
REMARK  8 active torsions:
REMARK  status: ('A' for Active; 'I' for Inactive)
REMARK    1  A    between atoms: N_1  and  N_13
REMARK    2  A    between atoms: C_4  and  S_20
REMARK    3  A    between atoms: C_11  and  C_14
REMARK    4  A    between atoms: C_14  and  C_16
REMARK    5  A    between atoms: N_15  and  O_19
REMARK    6  A    between atoms: S_20  and  C_21
REMARK    7  A    between atoms: C_24  and  O_32
REMARK    8  A    between atoms: O_29  and  O_30
REMARK                            x       y       z     vdW  Elec       q    Type
REMARK                         _______ _______ _______ _____ _____    ______ ____
ROOT
ATOM      1  O   HOH     1     -11.507 -46.082  29.765  0.00  0.00    -0.253 OA
ATOM      2  H   HOH     0     -10.537 -46.082  29.765  0.00  0.00    +0.253 HD
ENDROOT
TORSDOF 0
REMARK  Name = =
REMARK  8 active torsions:
REMARK  status: ('A' for Active; 'I' for Inactive)
REMARK    1  A    between atoms: N_1  and  N_13
REMARK    2  A    between atoms: C_4  and  S_20
REMARK    3  A    between atoms: C_11  and  C_14
REMARK    4  A    between atoms: C_14  and  C_16
REMARK    5  A    between atoms: N_15  and  O_19
REMARK    6  A    between atoms: S_20  and  C_21
REMARK    7  A    between atoms: C_24  and  O_32
REMARK    8  A    between atoms: O_29  and  O_30
REMARK                            x       y       z     vdW  Elec       q    Type
REMARK                         _______ _______ _______ _____ _____    ______ ____
ROOT
ATOM      1  O   UNL     1      -9.021 -47.019  31.120  0.00  0.00    -0.253 OA
ATOM      2  H   UNL     1      -8.530 -47.821  31.358  0.00  0.00    +0.253 HD
ENDROOT
BRANCH   1   3
ATOM      3  O   UNL     1      -9.290 -47.007  29.544  0.00  0.00    -0.253 OA
ATOM      4  H   UNL     1      -9.781 -46.205  29.306  0.00  0.00    +0.253 HD
ENDBRANCH   1   3
TORSDOF 1
REMARK  Name = =
REMARK  8 active torsions:
REMARK  status: ('A' for Active; 'I' for Inactive)
REMARK    1  A    between atoms: N_1  and  N_13
REMARK    2  A    between atoms: C_4  and  S_20
REMARK    3  A    between atoms: C_11  and  C_14
REMARK    4  A    between atoms: C_14  and  C_16
REMARK    5  A    between atoms: N_15  and  O_19
REMARK    6  A    between atoms: S_20  and  C_21
REMARK    7  A    between atoms: C_24  and  O_32
REMARK    8  A    between atoms: O_29  and  O_30
REMARK                            x       y       z     vdW  Elec       q    Type
REMARK                         _______ _______ _______ _____ _____    ______ ____
ROOT
ATOM      1  O   HOH     1     -10.575 -44.907  31.644  0.00  0.00    -0.253 OA
ATOM      2  H   HOH     0      -9.605 -44.907  31.644  0.00  0.00    +0.253 HD
ENDROOT
TORSDOF 0
