MODEL 1
REMARK VINA RESULT:    -5.773      0.000      0.000
REMARK INTER + INTRA:          -8.102
REMARK INTER:                  -9.148
REMARK INTRA:                   1.046
REMARK UNBOUND:                 1.046
REMARK  Name = =
REMARK  11 active torsions:
REMARK  status: ('A' for Active; 'I' for Inactive)
REMARK    1  A    between atoms: C_1  and  N_18
REMARK    2  A    between atoms: C_1  and  S_23
REMARK    3  A    between atoms: C_12  and  C_34
REMARK    4  A    between atoms: N_18  and  N_21
REMARK    5  A    between atoms: S_23  and  O_25
REMARK    6  A    between atoms: O_25  and  C_26
REMARK    7  A    between atoms: C_26  and  C_28
REMARK    8  A    between atoms: C_28  and  P_30
REMARK    9  A    between atoms: P_30  and  O_32
REMARK   10  A    between atoms: P_30  and  O_33
REMARK   11  A    between atoms: C_34  and  C_35
REMARK                            x       y       z     vdW  Elec       q    Type
REMARK                         _______ _______ _______ _____ _____    ______ ____
ROOT
ATOM      1  C   UNL     1      60.421 162.391  39.875  0.00  0.00    +0.188 C 
ATOM      2  C   UNL     1      59.908 161.229  38.913  0.00  0.00    +0.039 C 
ATOM      3  C   UNL     1      60.203 159.903  39.485  0.00  0.00    +0.003 C 
ATOM      4  C   UNL     1      60.637 159.738  40.872  0.00  0.00    +0.004 C 
ATOM      5  C   UNL     1      61.187 160.855  41.588  0.00  0.00    +0.021 C 
ATOM      6  C   UNL     1      61.805 160.858  42.863  0.00  0.00    +0.009 C 
ATOM      7  C   UNL     1      63.293 160.825  42.770  0.00  0.00    +0.026 C 
ATOM      8  C   UNL     1      63.691 161.222  41.387  0.00  0.00    -0.031 C 
ATOM      9  C   UNL     1      64.848 160.843  40.872  0.00  0.00    -0.031 C 
ATOM     10  C   UNL     1      65.336 161.174  39.532  0.00  0.00    +0.026 C 
ATOM     11  C   UNL     1      64.393 161.909  38.622  0.00  0.00    +0.009 C 
ATOM     12  C   UNL     1      63.507 162.841  39.530  0.00  0.00    +0.026 C 
ATOM     13  C   UNL     1      62.829 162.046  40.479  0.00  0.00    -0.032 C 
ATOM     14  C   UNL     1      61.542 161.902  40.569  0.00  0.00    -0.017 C 
ATOM     15  C   UNL     1      59.960 158.631  41.538  0.00  0.00    +0.000 C 
ATOM     16  C   UNL     1      58.792 158.290  40.660  0.00  0.00    +0.000 C 
ATOM     17  C   UNL     1      59.114 158.886  39.322  0.00  0.00    +0.000 C 
ENDROOT
BRANCH   1  18
ATOM     18  N   UNL     1      59.350 162.362  40.917  0.00  0.00    -0.159 N 
ATOM     19  C   UNL     1      58.047 161.897  40.571  0.00  0.00    +0.324 C 
ATOM     20  O   UNL     1      57.176 161.871  41.473  0.00  0.00    -0.263 OA
BRANCH  18  21
ATOM     21  N   UNL     1      59.592 162.777  42.186  0.00  0.00    -0.171 NA
ATOM     22  C   UNL     1      59.306 163.879  42.717  0.00  0.00    +0.140 C 
ENDBRANCH  18  21
ENDBRANCH   1  18
BRANCH   1  23
ATOM     23  S   UNL     1      60.023 163.926  39.221  0.00  0.00    +0.174 S 
ATOM     24  O   UNL     1      58.600 164.327  39.643  0.00  0.00    -0.118 OA
BRANCH  23  25
ATOM     25  O   UNL     1      59.915 163.840  37.483  0.00  0.00    -0.366 OA
BRANCH  25  26
ATOM     26  C   UNL     1      60.065 165.051  36.800  0.00  0.00    +0.401 C 
ATOM     27  O   UNL     1      60.364 166.109  37.456  0.00  0.00    -0.240 OA
BRANCH  26  28
ATOM     28  C   UNL     1      59.902 165.183  35.382  0.00  0.00    +0.350 C 
ATOM     29  O   UNL     1      59.059 164.469  34.791  0.00  0.00    -0.272 OA
BRANCH  28  30
ATOM     30  P   UNL     1      60.852 166.332  34.416  0.00  0.00    +0.405 P 
ATOM     31  O   UNL     1      59.901 167.080  33.497  0.00  0.00    -0.250 OA
BRANCH  30  32
ATOM     32  O   UNL     1      62.070 165.547  33.527  0.00  0.00    -0.318 OA
ATOM     33  H   UNL     1      62.740 166.194  33.257  0.00  0.00    +0.220 HD
ENDBRANCH  30  32
BRANCH  30  34
ATOM     34  O   UNL     1      61.621 167.484  35.384  0.00  0.00    -0.318 OA
ATOM     35  H   UNL     1      62.117 168.101  34.822  0.00  0.00    +0.220 HD
ENDBRANCH  30  34
ENDBRANCH  28  30
ENDBRANCH  26  28
ENDBRANCH  25  26
ENDBRANCH  23  25
ENDBRANCH   1  23
BRANCH  12  36
ATOM     36  C   UNL     1      63.164 164.086  38.878  0.00  0.00    +0.030 C 
BRANCH  36  37
ATOM     37  C   UNL     1      63.643 164.161  37.419  0.00  0.00    -0.026 C 
ATOM     38  C   UNL     1      63.925 165.331  36.878  0.00  0.00    -0.005 C 
ENDBRANCH  36  37
ENDBRANCH  12  36
TORSDOF 11
ENDMDL
