REMARK  Name = =
REMARK  11 active torsions:
REMARK  status: ('A' for Active; 'I' for Inactive)
REMARK    1  A    between atoms: C_1  and  N_18
REMARK    2  A    between atoms: C_1  and  S_23
REMARK    3  A    between atoms: C_12  and  C_34
REMARK    4  A    between atoms: N_18  and  N_21
REMARK    5  A    between atoms: S_23  and  O_25
REMARK    6  A    between atoms: O_25  and  C_26
REMARK    7  A    between atoms: C_26  and  C_28
REMARK    8  A    between atoms: C_28  and  P_30
REMARK    9  A    between atoms: P_30  and  O_32
REMARK   10  A    between atoms: P_30  and  O_33
REMARK   11  A    between atoms: C_34  and  C_35
REMARK                            x       y       z     vdW  Elec       q    Type
REMARK                         _______ _______ _______ _____ _____    ______ ____
ROOT
ATOM      1  C   UNL     1      53.844 153.981  25.815  0.00  0.00    +0.188 C 
ATOM      2  C   UNL     1      52.571 153.641  24.920  0.00  0.00    +0.039 C 
ATOM      3  C   UNL     1      51.661 154.797  24.837  0.00  0.00    +0.003 C 
ATOM      4  C   UNL     1      52.062 156.131  25.284  0.00  0.00    +0.004 C 
ATOM      5  C   UNL     1      53.170 156.281  26.186  0.00  0.00    +0.021 C 
ATOM      6  C   UNL     1      53.604 157.454  26.851  0.00  0.00    +0.009 C 
ATOM      7  C   UNL     1      53.098 157.529  28.252  0.00  0.00    +0.026 C 
ATOM      8  C   UNL     1      52.648 156.167  28.668  0.00  0.00    -0.031 C 
ATOM      9  C   UNL     1      51.751 156.005  29.624  0.00  0.00    -0.031 C 
ATOM     10  C   UNL     1      51.241 154.720  30.108  0.00  0.00    +0.026 C 
ATOM     11  C   UNL     1      51.688 153.487  29.376  0.00  0.00    +0.009 C 
ATOM     12  C   UNL     1      53.153 153.757  28.867  0.00  0.00    +0.026 C 
ATOM     13  C   UNL     1      53.147 154.900  28.040  0.00  0.00    -0.032 C 
ATOM     14  C   UNL     1      53.445 154.926  26.777  0.00  0.00    -0.017 C 
ATOM     15  C   UNL     1      51.662 157.175  24.347  0.00  0.00    +0.000 C 
ATOM     16  C   UNL     1      51.299 156.457  23.080  0.00  0.00    +0.000 C 
ATOM     17  C   UNL     1      51.058 155.033  23.485  0.00  0.00    +0.000 C 
ENDROOT
BRANCH   1  18
ATOM     18  N   UNL     1      54.632 154.806  24.849  0.00  0.00    -0.159 N 
ATOM     19  C   UNL     1      55.448 155.868  25.337  0.00  0.00    +0.324 C 
ATOM     20  O   UNL     1      56.109 156.530  24.501  0.00  0.00    -0.263 OA
BRANCH  18  21
ATOM     21  N   UNL     1      54.581 154.566  23.514  0.00  0.00    -0.171 NA
ATOM     22  C   UNL     1      55.507 154.193  22.751  0.00  0.00    +0.140 C 
ENDBRANCH  18  21
ENDBRANCH   1  18
BRANCH   1  23
ATOM     23  S   UNL     1      54.918 152.644  25.858  0.00  0.00    +0.174 S 
ATOM     24  O   UNL     1      56.369 153.126  25.695  0.00  0.00    -0.118 OA
BRANCH  23  25
ATOM     25  O   UNL     1      54.678 151.623  24.466  0.00  0.00    -0.366 OA
BRANCH  25  26
ATOM     26  C   UNL     1      54.755 150.246  24.696  0.00  0.00    +0.401 C 
ATOM     27  O   UNL     1      55.782 149.765  25.290  0.00  0.00    -0.240 OA
BRANCH  26  28
ATOM     28  C   UNL     1      53.734 149.321  24.300  0.00  0.00    +0.350 C 
ATOM     29  O   UNL     1      53.628 149.001  23.093  0.00  0.00    -0.272 OA
BRANCH  28  30
ATOM     30  P   UNL     1      52.601 148.597  25.461  0.00  0.00    +0.405 P 
ATOM     31  O   UNL     1      51.444 147.993  24.682  0.00  0.00    -0.250 OA
BRANCH  30  32
ATOM     32  O   UNL     1      52.046 149.738  26.592  0.00  0.00    -0.318 OA
ATOM     33  H   UNL     1      52.801 150.108  27.075  0.00  0.00    +0.220 HD
ENDBRANCH  30  32
BRANCH  30  34
ATOM     34  O   UNL     1      53.317 147.345  26.343  0.00  0.00    -0.318 OA
ATOM     35  H   UNL     1      54.063 147.695  26.855  0.00  0.00    +0.220 HD
ENDBRANCH  30  34
ENDBRANCH  28  30
ENDBRANCH  26  28
ENDBRANCH  25  26
ENDBRANCH  23  25
ENDBRANCH   1  23
BRANCH  12  36
ATOM     36  C   UNL     1      53.971 152.564  28.876  0.00  0.00    +0.030 C 
BRANCH  36  37
ATOM     37  C   UNL     1      54.961 152.513  30.051  0.00  0.00    -0.026 C 
ATOM     38  C   UNL     1      56.251 152.358  29.819  0.00  0.00    -0.005 C 
ENDBRANCH  36  37
ENDBRANCH  12  36
TORSDOF 11
